@<TRIPOS>MOLECULE
*****
   17    18     1     0     0
SMALL
bcc


@<TRIPOS>ATOM
      1 O            1.4080    -0.1180     0.8710 o          1 UNL      -0.617500
      2 C            2.4860    -0.0940     0.2840 c          1 UNL       0.819500
      3 N            3.0580     1.0820    -0.0890 ns         1 UNL      -0.589500
      4 C1           4.0000     1.1990    -1.0710 c          1 UNL       0.744500
      5 O1           4.1810     2.2420    -1.6870 o          1 UNL      -0.597500
      6 C2           4.7820    -0.0400    -1.3430 cx         1 UNL      -0.324000
      7 C3           5.8650    -0.0130    -2.4180 cx         1 UNL      -0.060400
      8 C4           6.2660    -0.0050    -0.9750 cx         1 UNL      -0.060400
      9 C5           4.0610    -1.3160    -1.0730 c          1 UNL       0.744500
     10 O2           4.3020    -2.3520    -1.6810 o          1 UNL      -0.597500
     11 N1           3.1030    -1.2430    -0.1020 ns         1 UNL      -0.589500
     12 H            2.5060     1.9080     0.0920 hn         1 UNL       0.359500
     13 H1           6.0060     0.8990    -2.9890 hc         1 UNL       0.101700
     14 H2           6.0490    -0.9150    -2.9910 hc         1 UNL       0.101700
     15 H3           6.6760     0.9150    -0.5700 hc         1 UNL       0.101700
     16 H4           6.7200    -0.9040    -0.5720 hc         1 UNL       0.101700
     17 H5           2.5880    -2.0950     0.0750 hn         1 UNL       0.359500
@<TRIPOS>BOND
     1     1     2 2   
     2     2     3 1   
     3     3     4 1   
     4     4     5 2   
     5     4     6 1   
     6     6     7 1   
     7     7     8 1   
     8     6     8 1   
     9     6     9 1   
    10     9    10 2   
    11     9    11 1   
    12     2    11 1   
    13     3    12 1   
    14     7    13 1   
    15     7    14 1   
    16     8    15 1   
    17     8    16 1   
    18    11    17 1   
@<TRIPOS>SUBSTRUCTURE
     1 UNL         1 TEMP              0 ****  ****    0 ROOT
