@<TRIPOS>MOLECULE
*****
   32    36     1     0     0
SMALL
bcc


@<TRIPOS>ATOM
      1 C           -2.8780     2.3530    -0.4330 ca         1 UNL      -0.128000
      2 C1          -3.5490     1.1580    -0.2140 ca         1 UNL      -0.114000
      3 C2          -2.8340    -0.0210     0.0190 ca         1 UNL      -0.037000
      4 C3          -3.5180    -1.2130     0.2750 ca         1 UNL      -0.114000
      5 C4          -2.8200    -2.3960     0.4600 ca         1 UNL      -0.128000
      6 C5          -1.4330    -2.4080     0.3220 ca         1 UNL      -0.117000
      7 C6          -0.6940    -1.2260     0.0690 ca         1 UNL      -0.017000
      8 C7           0.7230    -1.2100    -0.0950 ca         1 UNL      -0.017000
      9 C8           1.4900    -2.3760    -0.3410 ca         1 UNL      -0.117000
     10 C9           2.8810    -2.3410    -0.4380 ca         1 UNL      -0.128000
     11 C10          3.5520    -1.1450    -0.2240 ca         1 UNL      -0.114000
     12 C11          2.8360     0.0330     0.0090 ca         1 UNL      -0.037000
     13 C12          3.5230     1.2260     0.2610 ca         1 UNL      -0.114000
     14 C13          2.8250     2.4090     0.4500 ca         1 UNL      -0.128000
     15 C14          1.4390     2.4220     0.3160 ca         1 UNL      -0.117000
     16 C15          0.6960     1.2380     0.0670 ca         1 UNL      -0.017000
     17 C16         -0.7210     1.2260    -0.0940 ca         1 UNL      -0.017000
     18 C17         -1.4870     2.3900    -0.3380 ca         1 UNL      -0.117000
     19 C18         -1.4090    -0.0080    -0.0020 ca         1 UNL      -0.011000
     20 C19          1.4140     0.0220    -0.0110 ca         1 UNL      -0.011000
     21 H           -3.4320     3.2580    -0.6640 ha         1 UNL       0.134000
     22 H1          -4.6350     1.1500    -0.2520 ha         1 UNL       0.134000
     23 H2          -4.6030    -1.2240     0.3530 ha         1 UNL       0.134000
     24 H3          -3.3500    -3.3140     0.7030 ha         1 UNL       0.134000
     25 H4          -0.9270    -3.3570     0.4700 ha         1 UNL       0.133000
     26 H5           1.0050    -3.3350    -0.5070 ha         1 UNL       0.133000
     27 H6           3.4340    -3.2460    -0.6690 ha         1 UNL       0.134000
     28 H7           4.6380    -1.1380    -0.2640 ha         1 UNL       0.134000
     29 H8           4.6080     1.2360     0.3360 ha         1 UNL       0.134000
     30 H9           3.3570     3.3250     0.6930 ha         1 UNL       0.134000
     31 H10          0.9320     3.3710     0.4690 ha         1 UNL       0.133000
     32 H11         -1.0020     3.3460    -0.5090 ha         1 UNL       0.133000
@<TRIPOS>BOND
     1     1     2 ar  
     2     2     3 ar  
     3     3     4 ar  
     4     4     5 ar  
     5     5     6 ar  
     6     6     7 ar  
     7     7     8 ar  
     8     8     9 ar  
     9     9    10 ar  
    10    10    11 ar  
    11    11    12 ar  
    12    12    13 ar  
    13    13    14 ar  
    14    14    15 ar  
    15    15    16 ar  
    16    16    17 ar  
    17    17    18 ar  
    18     1    18 ar  
    19    17    19 ar  
    20     3    19 ar  
    21     7    19 ar  
    22    16    20 ar  
    23    12    20 ar  
    24     8    20 ar  
    25     1    21 1   
    26     2    22 1   
    27     4    23 1   
    28     5    24 1   
    29     6    25 1   
    30     9    26 1   
    31    10    27 1   
    32    11    28 1   
    33    13    29 1   
    34    14    30 1   
    35    15    31 1   
    36    18    32 1   
@<TRIPOS>SUBSTRUCTURE
     1 UNL         1 TEMP              0 ****  ****    0 ROOT
