@<TRIPOS>MOLECULE
*****
 32 36 0 0 0
SMALL
GASTEIGER

@<TRIPOS>ATOM
      1 C          -2.8780    2.3534   -0.4331 C.ar    1  UNL1       -0.0606
      2 C          -3.5486    1.1576   -0.2140 C.ar    1  UNL1       -0.0540
      3 C          -2.8341   -0.0210    0.0186 C.ar    1  UNL1       -0.0167
      4 C          -3.5179   -1.2134    0.2748 C.ar    1  UNL1       -0.0540
      5 C          -2.8200   -2.3961    0.4595 C.ar    1  UNL1       -0.0606
      6 C          -1.4334   -2.4077    0.3218 C.ar    1  UNL1       -0.0534
      7 C          -0.6939   -1.2263    0.0685 C.ar    1  UNL1       -0.0090
      8 C           0.7230   -1.2105   -0.0950 C.ar    1  UNL1       -0.0090
      9 C           1.4902   -2.3756   -0.3410 C.ar    1  UNL1       -0.0534
     10 C           2.8807   -2.3406   -0.4381 C.ar    1  UNL1       -0.0606
     11 C           3.5516   -1.1455   -0.2241 C.ar    1  UNL1       -0.0540
     12 C           2.8364    0.0332    0.0090 C.ar    1  UNL1       -0.0167
     13 C           3.5227    1.2255    0.2614 C.ar    1  UNL1       -0.0540
     14 C           2.8255    2.4088    0.4501 C.ar    1  UNL1       -0.0606
     15 C           1.4390    2.4216    0.3160 C.ar    1  UNL1       -0.0534
     16 C           0.6961    1.2377    0.0669 C.ar    1  UNL1       -0.0090
     17 C          -0.7205    1.2261   -0.0936 C.ar    1  UNL1       -0.0090
     18 C          -1.4869    2.3896   -0.3377 C.ar    1  UNL1       -0.0534
     19 C          -1.4091   -0.0076   -0.0019 C.ar    1  UNL1       -0.0024
     20 C           1.4137    0.0217   -0.0105 C.ar    1  UNL1       -0.0024
     21 H          -3.4319    3.2578   -0.6643 H       1  UNL1        0.0618
     22 H          -4.6348    1.1504   -0.2515 H       1  UNL1        0.0624
     23 H          -4.6034   -1.2245    0.3527 H       1  UNL1        0.0624
     24 H          -3.3502   -3.3141    0.7031 H       1  UNL1        0.0618
     25 H          -0.9267   -3.3574    0.4705 H       1  UNL1        0.0624
     26 H           1.0049   -3.3351   -0.5070 H       1  UNL1        0.0624
     27 H           3.4342   -3.2459   -0.6686 H       1  UNL1        0.0618
     28 H           4.6385   -1.1378   -0.2637 H       1  UNL1        0.0624
     29 H           4.6080    1.2360    0.3364 H       1  UNL1        0.0624
     30 H           3.3566    3.3245    0.6926 H       1  UNL1        0.0618
     31 H           0.9320    3.3708    0.4686 H       1  UNL1        0.0624
     32 H          -1.0021    3.3465   -0.5095 H       1  UNL1        0.0624
@<TRIPOS>BOND
     1     1     2   ar
     2     2     3   ar
     3     3     4   ar
     4     4     5   ar
     5     5     6   ar
     6     6     7   ar
     7     7     8   ar
     8     8     9   ar
     9     9    10   ar
    10    10    11   ar
    11    11    12   ar
    12    12    13   ar
    13    13    14   ar
    14    14    15   ar
    15    15    16   ar
    16    16    17   ar
    17    17    18   ar
    18     1    18   ar
    19    17    19   ar
    20     3    19   ar
    21     7    19   ar
    22    16    20   ar
    23    12    20   ar
    24     8    20   ar
    25     1    21    1
    26     2    22    1
    27     4    23    1
    28     5    24    1
    29     6    25    1
    30     9    26    1
    31    10    27    1
    32    11    28    1
    33    13    29    1
    34    14    30    1
    35    15    31    1
    36    18    32    1
