@<TRIPOS>MOLECULE
*****
   38    41     1     0     0
SMALL
bcc


@<TRIPOS>ATOM
      1 C            1.5310    -0.2830    -0.2740 c3         1 UNL      -0.082100
      2 C1           2.2960    -0.8460     0.9480 c3         1 UNL      -0.151000
      3 C2           1.5120    -2.0410     1.4910 c3         1 UNL      -0.055400
      4 C3           1.6450    -3.2750     0.5090 c3         1 UNL      -0.038100
      5 C4           2.7660    -3.2350    -0.5600 ca         1 UNL      -0.048300
      6 C5           3.7590    -2.2270    -0.4590 ca         1 UNL      -0.073300
      7 C6           4.7000    -2.0320    -1.4680 ca         1 UNL      -0.108000
      8 C7           4.7200    -2.8800    -2.5590 ca         1 UNL      -0.131000
      9 C8           3.8220    -3.9530    -2.6520 ca         1 UNL       0.002000
     10 C9           3.9370    -4.8370    -3.7330 ca         1 UNL      -0.219000
     11 C10          3.0860    -5.9250    -3.8290 ca         1 UNL       0.130100
     12 O            3.1940    -6.8160    -4.8550 oh         1 UNL      -0.496100
     13 C11          2.0960    -6.1290    -2.8820 ca         1 UNL      -0.140000
     14 C12          1.9590    -5.2460    -1.8070 ca         1 UNL      -0.093000
     15 C13          2.8250    -4.1410    -1.6540 ca         1 UNL      -0.059000
     16 C14          3.7200    -1.4280     0.7910 c3         1 UNL      -0.023400
     17 C15          4.7730    -0.4170     1.2290 c3         1 UNL      -0.070400
     18 C16          4.0350     0.8870     1.4140 c3         1 UNL      -0.188400
     19 C17          2.6430     0.3900     1.7610 c          1 UNL       0.578100
     20 O1           1.8560     1.0120     2.4590 o          1 UNL      -0.518100
     21 H            1.2910    -1.0340    -1.0310 hc         1 UNL       0.046367
     22 H1           2.0580     0.5380    -0.7680 hc         1 UNL       0.046367
     23 H2           0.5640     0.1200     0.0630 hc         1 UNL       0.046367
     24 H3           0.4560    -1.8000     1.6580 hc         1 UNL       0.053700
     25 H4           1.8940    -2.3240     2.4820 hc         1 UNL       0.053700
     26 H5           0.6850    -3.3610    -0.0150 hc         1 UNL       0.054200
     27 H6           1.7770    -4.1820     1.1130 hc         1 UNL       0.054200
     28 H7           5.4200    -1.2190    -1.4190 ha         1 UNL       0.134000
     29 H8           5.4660    -2.7130    -3.3350 ha         1 UNL       0.133000
     30 H9           4.7120    -4.6800    -4.4780 ha         1 UNL       0.136000
     31 H10          3.9500    -6.5620    -5.4120 ho         1 UNL       0.420000
     32 H11          1.4280    -6.9820    -2.9760 ha         1 UNL       0.152000
     33 H12          1.1800    -5.4440    -1.0770 ha         1 UNL       0.137000
     34 H13          3.8740    -2.2090     1.5560 hc         1 UNL       0.063700
     35 H14          5.6580    -0.3500     0.5940 hc         1 UNL       0.052200
     36 H15          5.1420    -0.7250     2.2220 hc         1 UNL       0.052200
     37 H16          4.0130     1.4450     0.4740 hc         1 UNL       0.076200
     38 H17          4.4700     1.4960     2.2080 hc         1 UNL       0.076200
@<TRIPOS>BOND
     1     1     2 1   
     2     2     3 1   
     3     3     4 1   
     4     4     5 1   
     5     5     6 ar  
     6     6     7 ar  
     7     7     8 ar  
     8     8     9 ar  
     9     9    10 ar  
    10    10    11 ar  
    11    11    12 1   
    12    11    13 ar  
    13    13    14 ar  
    14    14    15 ar  
    15     5    15 ar  
    16     9    15 ar  
    17     6    16 1   
    18     2    16 1   
    19    16    17 1   
    20    17    18 1   
    21    18    19 1   
    22     2    19 1   
    23    19    20 2   
    24     1    21 1   
    25     1    22 1   
    26     1    23 1   
    27     3    24 1   
    28     3    25 1   
    29     4    26 1   
    30     4    27 1   
    31     7    28 1   
    32     8    29 1   
    33    10    30 1   
    34    12    31 1   
    35    13    32 1   
    36    14    33 1   
    37    16    34 1   
    38    17    35 1   
    39    17    36 1   
    40    18    37 1   
    41    18    38 1   
@<TRIPOS>SUBSTRUCTURE
     1 UNL         1 TEMP              0 ****  ****    0 ROOT
