@<TRIPOS>MOLECULE
*****
   29    30     1     0     0
SMALL
bcc


@<TRIPOS>ATOM
      1 C            2.1840     2.1200    -0.5510 c3         1 UNL       0.074300
      2 N            2.9390     0.8980    -0.4750 ns         1 UNL      -0.523900
      3 C1           4.0680     0.7170    -1.2240 c          1 UNL       0.740100
      4 O            4.5990     1.5980    -1.8910 o          1 UNL      -0.565000
      5 O1           4.4650    -0.6160    -1.1590 os         1 UNL      -0.372200
      6 C2           5.3150    -1.0990    -2.1790 ca         1 UNL       0.145100
      7 C3           5.0340    -0.7770    -3.5150 ca         1 UNL      -0.135000
      8 C4           5.8220    -1.2920    -4.5400 ca         1 UNL      -0.107000
      9 C5           6.8830    -2.1380    -4.2340 ca         1 UNL      -0.144000
     10 C6           7.1410    -2.4860    -2.9050 ca         1 UNL      -0.096000
     11 C7           6.3440    -1.9980    -1.8510 ca         1 UNL      -0.141300
     12 C8           6.5970    -2.4480    -0.4310 c3         1 UNL       0.392200
     13 O2           7.5730    -1.6140     0.2100 os         1 UNL      -0.433600
     14 C9           8.6540    -2.4830     0.5480 c3         1 UNL       0.102900
     15 C10          8.0240    -3.8460     0.6290 c3         1 UNL       0.102900
     16 O3           7.0420    -3.8200    -0.4000 os         1 UNL      -0.433600
     17 H            1.2650     2.0060     0.0270 h1         1 UNL       0.050033
     18 H1           1.9390     2.3360    -1.5960 h1         1 UNL       0.050033
     19 H2           2.7840     2.9400    -0.1470 h1         1 UNL       0.050033
     20 H3           2.5380     0.0740    -0.0510 hn         1 UNL       0.320500
     21 H4           4.2030    -0.1250    -3.7700 ha         1 UNL       0.161000
     22 H5           5.6050    -1.0330    -5.5720 ha         1 UNL       0.137000
     23 H6           7.5020    -2.5380    -5.0310 ha         1 UNL       0.135000
     24 H7           7.9630    -3.1680    -2.6940 ha         1 UNL       0.148000
     25 H8           5.6750    -2.4050     0.1580 h2         1 UNL       0.101700
     26 H9           9.1200    -2.1730     1.4860 h1         1 UNL       0.060200
     27 H10          9.3960    -2.4320    -0.2540 h1         1 UNL       0.060200
     28 H11          7.5130    -4.0020     1.5850 h1         1 UNL       0.060200
     29 H12          8.7370    -4.6610     0.4680 h1         1 UNL       0.060200
@<TRIPOS>BOND
     1     1     2 1   
     2     2     3 1   
     3     3     4 2   
     4     3     5 1   
     5     5     6 1   
     6     6     7 ar  
     7     7     8 ar  
     8     8     9 ar  
     9     9    10 ar  
    10    10    11 ar  
    11     6    11 ar  
    12    11    12 1   
    13    12    13 1   
    14    13    14 1   
    15    14    15 1   
    16    15    16 1   
    17    12    16 1   
    18     1    17 1   
    19     1    18 1   
    20     1    19 1   
    21     2    20 1   
    22     7    21 1   
    23     8    22 1   
    24     9    23 1   
    25    10    24 1   
    26    12    25 1   
    27    14    26 1   
    28    14    27 1   
    29    15    28 1   
    30    15    29 1   
@<TRIPOS>SUBSTRUCTURE
     1 UNL         1 TEMP              0 ****  ****    0 ROOT
