@<TRIPOS>MOLECULE
*****
   35    38     1     0     0
SMALL
bcc


@<TRIPOS>ATOM
      1 C            0.9740     0.0500     0.0680 c3         1 UNL      -0.125400
      2 C1           2.4520     0.0220     0.1750 cc         1 UNL       0.382800
      3 N            3.2120     1.0960     0.1120 nd         1 UNL      -0.345000
      4 N1           4.5150     0.6960     0.0530 nd         1 UNL      -0.326000
      5 C2           4.5370    -0.6190     0.0830 cc         1 UNL       0.353800
      6 N2           3.2570    -1.1080     0.2200 na         1 UNL      -0.272800
      7 C3           2.9150    -2.4690     0.4440 ca         1 UNL       0.031800
      8 C4           1.8090    -2.7640     1.2630 ca         1 UNL      -0.140000
      9 C5           1.4620    -4.0870     1.5490 ca         1 UNL      -0.098000
     10 C6           2.2340    -5.1270     1.0470 ca         1 UNL       0.008400
     11 Cl           1.7900    -6.7560     1.3720 cl         1 UNL      -0.071400
     12 C7           3.3530    -4.8560     0.2650 ca         1 UNL      -0.081000
     13 C8           3.6880    -3.5310    -0.0760 ca         1 UNL      -0.172900
     14 C9           4.7830    -3.3430    -1.0960 ce         1 UNL       0.526500
     15 C10          4.8360    -4.2890    -2.2730 ca         1 UNL      -0.131900
     16 C11          3.6220    -4.7410    -2.8300 ca         1 UNL      -0.096000
     17 C12          3.6110    -5.6900    -3.8540 ca         1 UNL      -0.129000
     18 C13          4.8100    -6.1620    -4.3760 ca         1 UNL      -0.111000
     19 C14          6.0200    -5.6830    -3.8740 ca         1 UNL      -0.127000
     20 C15          6.0430    -4.7580    -2.8210 ca         1 UNL       0.036400
     21 Cl1          7.6100    -4.3290    -2.2280 cl         1 UNL      -0.080400
     22 N3           5.6690    -2.4110    -1.0430 n2         1 UNL      -0.552900
     23 C16          5.7260    -1.4890     0.0790 c3         1 UNL       0.083500
     24 H            0.6450     1.0310    -0.2930 hc         1 UNL       0.064700
     25 H1           0.4990    -0.1070     1.0390 hc         1 UNL       0.064700
     26 H2           0.6130    -0.6980    -0.6440 hc         1 UNL       0.064700
     27 H3           1.2280    -1.9870     1.7520 ha         1 UNL       0.154000
     28 H4           0.5990    -4.2960     2.1780 ha         1 UNL       0.158000
     29 H5           3.9430    -5.6910    -0.1100 ha         1 UNL       0.168000
     30 H6           2.6650    -4.3750    -2.4640 ha         1 UNL       0.146000
     31 H7           2.6660    -6.0620    -4.2430 ha         1 UNL       0.141000
     32 H8           4.8070    -6.9010    -5.1740 ha         1 UNL       0.141000
     33 H9           6.9520    -6.0500    -4.2980 ha         1 UNL       0.151000
     34 H10          6.6290    -0.8760    -0.0230 h1         1 UNL       0.092200
     35 H11          5.8320    -2.0260     1.0320 h1         1 UNL       0.092200
@<TRIPOS>BOND
     1     1     2 1   
     2     2     3 2   
     3     3     4 1   
     4     4     5 2   
     5     5     6 1   
     6     2     6 1   
     7     6     7 1   
     8     7     8 ar  
     9     8     9 ar  
    10     9    10 ar  
    11    10    11 1   
    12    10    12 ar  
    13    12    13 ar  
    14     7    13 ar  
    15    13    14 1   
    16    14    15 1   
    17    15    16 ar  
    18    16    17 ar  
    19    17    18 ar  
    20    18    19 ar  
    21    19    20 ar  
    22    15    20 ar  
    23    20    21 1   
    24    14    22 2   
    25    22    23 1   
    26     5    23 1   
    27     1    24 1   
    28     1    25 1   
    29     1    26 1   
    30     8    27 1   
    31     9    28 1   
    32    12    29 1   
    33    16    30 1   
    34    17    31 1   
    35    18    32 1   
    36    19    33 1   
    37    23    34 1   
    38    23    35 1   
@<TRIPOS>SUBSTRUCTURE
     1 UNL         1 TEMP              0 ****  ****    0 ROOT
