@<TRIPOS>MOLECULE
*****
 21 23 0 0 0
SMALL
GASTEIGER

@<TRIPOS>ATOM
      1 C           3.4037    0.2185   -0.0102 C.ar    1  UNL1       -0.0582
      2 C           3.0646   -1.1362    0.0211 C.ar    1  UNL1       -0.0610
      3 C           1.7230   -1.5446    0.0222 C.ar    1  UNL1       -0.0504
      4 C           0.7145   -0.5645    0.0032 C.ar    1  UNL1        0.0279
      5 C           1.0948    0.7749   -0.0112 C.ar    1  UNL1        0.1362
      6 C           2.4176    1.2101   -0.0285 C.ar    1  UNL1       -0.0187
      7 O           0.0000    1.5841   -0.0027 O.2     1  UNL1       -0.4548
      8 C          -1.0933    0.7727    0.0074 C.ar    1  UNL1        0.1362
      9 C          -2.4170    1.2069    0.0290 C.ar    1  UNL1       -0.0187
     10 C          -3.4016    0.2138    0.0153 C.ar    1  UNL1       -0.0582
     11 C          -3.0606   -1.1409   -0.0187 C.ar    1  UNL1       -0.0610
     12 C          -1.7185   -1.5479   -0.0253 C.ar    1  UNL1       -0.0504
     13 C          -0.7110   -0.5645   -0.0079 C.ar    1  UNL1        0.0279
     14 H           4.4521    0.5096   -0.0174 H       1  UNL1        0.0619
     15 H           3.8521   -1.8868    0.0451 H       1  UNL1        0.0618
     16 H           1.4707   -2.6010    0.0456 H       1  UNL1        0.0625
     17 H           2.6622    2.2652   -0.0524 H       1  UNL1        0.0654
     18 H          -2.6629    2.2616    0.0535 H       1  UNL1        0.0654
     19 H          -4.4504    0.5031    0.0283 H       1  UNL1        0.0619
     20 H          -3.8472   -1.8923   -0.0390 H       1  UNL1        0.0618
     21 H          -1.4648   -2.6035   -0.0492 H       1  UNL1        0.0625
@<TRIPOS>BOND
     1     1     2   ar
     2     2     3   ar
     3     3     4   ar
     4     4     5   ar
     5     5     6   ar
     6     1     6   ar
     7     5     7   ar
     8     7     8   ar
     9     8     9   ar
    10     9    10   ar
    11    10    11   ar
    12    11    12   ar
    13    12    13   ar
    14     8    13   ar
    15     4    13   ar
    16     1    14    1
    17     2    15    1
    18     3    16    1
    19     6    17    1
    20     9    18    1
    21    10    19    1
    22    11    20    1
    23    12    21    1
