@<TRIPOS>MOLECULE
*****
 28 29 0 0 0
SMALL
GASTEIGER

@<TRIPOS>ATOM
      1 O           2.0020    0.1982    1.4549 O.2     1  UNL1       -0.2889
      2 C           2.2835    0.0108    0.2712 C.2     1  UNL1        0.1958
      3 C           1.8197   -1.2287   -0.4094 C.ar    1  UNL1        0.0204
      4 C           0.6321   -1.8259    0.0343 C.ar    1  UNL1       -0.0512
      5 C           0.1145   -2.9369   -0.6332 C.ar    1  UNL1       -0.0611
      6 C           0.7875   -3.4626   -1.7354 C.ar    1  UNL1       -0.0617
      7 C           1.9873   -2.8908   -2.1608 C.ar    1  UNL1       -0.0611
      8 C           2.5073   -1.7765   -1.5000 C.ar    1  UNL1       -0.0512
      9 C           3.0165    1.0684   -0.5604 C.3     1  UNL1        0.1425
     10 O           2.6601    2.3669   -0.0793 O.3     1  UNL1       -0.3793
     11 C           4.5269    0.9894   -0.5303 C.ar    1  UNL1       -0.0116
     12 C           5.2562    1.4537   -1.6387 C.ar    1  UNL1       -0.0557
     13 C           6.6514    1.5005   -1.6109 C.ar    1  UNL1       -0.0614
     14 C           7.3386    1.0843   -0.4743 C.ar    1  UNL1       -0.0617
     15 C           6.6321    0.6116    0.6298 C.ar    1  UNL1       -0.0614
     16 C           5.2357    0.5656    0.6048 C.ar    1  UNL1       -0.0557
     17 H           0.0956   -1.4143    0.8864 H       1  UNL1        0.0625
     18 H          -0.8168   -3.3857   -0.2991 H       1  UNL1        0.0618
     19 H           0.3777   -4.3210   -2.2626 H       1  UNL1        0.0618
     20 H           2.5152   -3.3127   -3.0123 H       1  UNL1        0.0618
     21 H           3.4482   -1.3598   -1.8469 H       1  UNL1        0.0625
     22 H           2.6518    1.0128   -1.5928 H       1  UNL1        0.0727
     23 H           2.6479    2.2870    0.8940 H       1  UNL1        0.2108
     24 H           4.7354    1.8184   -2.5226 H       1  UNL1        0.0621
     25 H           7.1992    1.8846   -2.4678 H       1  UNL1        0.0618
     26 H           8.4229    1.1452   -0.4414 H       1  UNL1        0.0618
     27 H           7.1685    0.2986    1.5224 H       1  UNL1        0.0618
     28 H           4.7129    0.2230    1.4962 H       1  UNL1        0.0621
@<TRIPOS>BOND
     1     1     2    2
     2     2     3    1
     3     3     4   ar
     4     4     5   ar
     5     5     6   ar
     6     6     7   ar
     7     7     8   ar
     8     3     8   ar
     9     2     9    1
    10     9    10    1
    11     9    11    1
    12    11    12   ar
    13    12    13   ar
    14    13    14   ar
    15    14    15   ar
    16    15    16   ar
    17    11    16   ar
    18     4    17    1
    19     5    18    1
    20     6    19    1
    21     7    20    1
    22     8    21    1
    23     9    22    1
    24    10    23    1
    25    12    24    1
    26    13    25    1
    27    14    26    1
    28    15    27    1
    29    16    28    1
