@<TRIPOS>MOLECULE
*****
 47 49 0 0 0
SMALL
GASTEIGER

@<TRIPOS>ATOM
      1 C           0.4364   -2.6233   -3.6587 C.3     1  UNL1       -0.0397
      2 C          -0.5864   -1.7655   -2.9727 C.ar    1  UNL1       -0.0502
      3 C          -1.1983   -0.7147   -3.6628 C.ar    1  UNL1       -0.0554
      4 C          -2.0344    0.1729   -2.9864 C.ar    1  UNL1       -0.0191
      5 C          -2.2818    0.0191   -1.6206 C.ar    1  UNL1        0.1342
      6 O          -2.9151    1.0738   -1.0389 O.3     1  UNL1       -0.3859
      7 P          -4.0415    1.0633    0.1097 P.3     1  UNL1        0.6509
      8 O          -4.7821   -0.2296    0.3061 O.2     1  UNL1       -0.1943
      9 O          -3.2710    1.6006    1.4213 O.3     1  UNL1       -0.3859
     10 C          -3.8556    1.8589    2.6349 C.ar    1  UNL1        0.1344
     11 C          -2.9794    2.2697    3.6408 C.ar    1  UNL1       -0.0193
     12 C          -3.4445    2.5484    4.9280 C.ar    1  UNL1       -0.0580
     13 C          -4.8038    2.4268    5.2094 C.ar    1  UNL1       -0.0586
     14 C          -5.7060    2.0380    4.2099 C.ar    1  UNL1       -0.0470
     15 C          -7.1796    1.9985    4.5075 C.3     1  UNL1       -0.0396
     16 C          -5.2186    1.7483    2.9195 C.ar    1  UNL1       -0.0164
     17 O          -4.9300    2.3448   -0.3343 O.3     1  UNL1       -0.3857
     18 C          -5.7232    2.3835   -1.4513 C.ar    1  UNL1        0.1371
     19 C          -6.3813    1.2481   -1.9246 C.ar    1  UNL1       -0.0191
     20 C          -7.2809    1.3441   -2.9858 C.ar    1  UNL1       -0.0583
     21 C          -7.5366    2.5771   -3.5747 C.ar    1  UNL1       -0.0613
     22 C          -6.8538    3.7092   -3.1349 C.ar    1  UNL1       -0.0554
     23 C          -5.9233    3.6242   -2.0857 C.ar    1  UNL1       -0.0082
     24 C          -5.1309    4.8456   -1.7104 C.3     1  UNL1       -0.0362
     25 C          -1.7683   -1.0792   -0.9431 C.ar    1  UNL1       -0.0191
     26 C          -0.9166   -1.9694   -1.6239 C.ar    1  UNL1       -0.0554
     27 H           0.6959   -2.2218   -4.6470 H       1  UNL1        0.0278
     28 H           0.0695   -3.6449   -3.7908 H       1  UNL1        0.0278
     29 H           1.3619   -2.6414   -3.0710 H       1  UNL1        0.0278
     30 H          -0.9934   -0.5478   -4.7181 H       1  UNL1        0.0621
     31 H          -2.4651    1.0155   -3.5208 H       1  UNL1        0.0654
     32 H          -1.9190    2.3822    3.4290 H       1  UNL1        0.0654
     33 H          -2.7569    2.8517    5.7041 H       1  UNL1        0.0619
     34 H          -5.1606    2.6433    6.2174 H       1  UNL1        0.0620
     35 H          -7.3732    2.0819    5.5812 H       1  UNL1        0.0278
     36 H          -7.6150    1.0511    4.1695 H       1  UNL1        0.0278
     37 H          -7.6847    2.8282    4.0067 H       1  UNL1        0.0278
     38 H          -5.9293    1.4391    2.1553 H       1  UNL1        0.0657
     39 H          -6.2388    0.2725   -1.4731 H       1  UNL1        0.0654
     40 H          -7.7955    0.4535   -3.3369 H       1  UNL1        0.0619
     41 H          -8.2624    2.6552   -4.3796 H       1  UNL1        0.0618
     42 H          -7.0536    4.6637   -3.6185 H       1  UNL1        0.0621
     43 H          -5.4442    5.7178   -2.2978 H       1  UNL1        0.0279
     44 H          -4.0702    4.6789   -1.9255 H       1  UNL1        0.0279
     45 H          -5.2593    5.0916   -0.6546 H       1  UNL1        0.0279
     46 H          -1.9632   -1.2356    0.1139 H       1  UNL1        0.0654
     47 H          -0.4765   -2.8038   -1.0813 H       1  UNL1        0.0621
@<TRIPOS>BOND
     1     1     2    1
     2     2     3   ar
     3     3     4   ar
     4     4     5   ar
     5     5     6    1
     6     6     7    1
     7     7     8    2
     8     7     9    1
     9     9    10    1
    10    10    11   ar
    11    11    12   ar
    12    12    13   ar
    13    13    14   ar
    14    14    15    1
    15    14    16   ar
    16    10    16   ar
    17     7    17    1
    18    17    18    1
    19    18    19   ar
    20    19    20   ar
    21    20    21   ar
    22    21    22   ar
    23    22    23   ar
    24    18    23   ar
    25    23    24    1
    26     5    25   ar
    27    25    26   ar
    28     2    26   ar
    29     1    27    1
    30     1    28    1
    31     1    29    1
    32     3    30    1
    33     4    31    1
    34    11    32    1
    35    12    33    1
    36    13    34    1
    37    15    35    1
    38    15    36    1
    39    15    37    1
    40    16    38    1
    41    19    39    1
    42    20    40    1
    43    21    41    1
    44    22    42    1
    45    24    43    1
    46    24    44    1
    47    24    45    1
    48    25    46    1
    49    26    47    1
