@<TRIPOS>MOLECULE
*****
   40    41     1     0     0
SMALL
bcc


@<TRIPOS>ATOM
      1 C            0.9790    -0.0090     0.1870 c3         1 UNL       0.081300
      2 N            2.4440     0.0230     0.1850 n          1 UNL      -0.402000
      3 C1           3.2100     0.5150     1.2520 c          1 UNL       0.775100
      4 O            4.4400     0.5500     1.2520 o          1 UNL      -0.632100
      5 N1           2.5240     0.9910     2.3550 ns         1 UNL      -0.552900
      6 C2           3.2340     1.5430     3.5380 c3         1 UNL       0.176700
      7 C3           4.1530     0.4710     4.1790 c3         1 UNL      -0.111100
      8 C4           4.1170     2.7450     3.1160 c3         1 UNL      -0.111100
      9 C5           2.1950     1.9510     4.6140 ca         1 UNL      -0.102300
     10 C6           1.3240     0.9860     5.1580 ca         1 UNL      -0.117500
     11 C7           0.4770     1.2940     6.2290 ca         1 UNL      -0.135000
     12 C8           0.4680     2.5750     6.7700 ca         1 UNL      -0.124000
     13 C9           1.2880     3.5570     6.2260 ca         1 UNL      -0.135000
     14 C10          2.1340     3.2500     5.1560 ca         1 UNL      -0.117500
     15 C11          3.0960    -0.4930    -1.0180 ca         1 UNL       0.067600
     16 C12          4.4300    -0.9290    -1.0260 ca         1 UNL      -0.142000
     17 C13          5.0570    -1.4040    -2.1870 ca         1 UNL      -0.118000
     18 C14          4.3530    -1.4680    -3.3790 ca         1 UNL      -0.144000
     19 C15          3.0240    -1.0660    -3.4040 ca         1 UNL      -0.118000
     20 C16          2.4030    -0.5890    -2.2410 ca         1 UNL      -0.142000
     21 H            0.5480     0.1430     1.1780 h1         1 UNL       0.042033
     22 H1           0.6350    -0.9920    -0.1540 h1         1 UNL       0.042033
     23 H2           0.6010     0.7750    -0.4770 h1         1 UNL       0.042033
     24 H3           1.6150     1.3880     2.1940 hn         1 UNL       0.301500
     25 H4           5.0030     0.2120     3.5410 hc         1 UNL       0.051700
     26 H5           3.6130    -0.4640     4.3730 hc         1 UNL       0.051700
     27 H6           4.5660     0.8210     5.1320 hc         1 UNL       0.051700
     28 H7           4.9170     2.4670     2.4240 hc         1 UNL       0.051700
     29 H8           4.6220     3.1970     3.9770 hc         1 UNL       0.051700
     30 H9           3.5200     3.5160     2.6140 hc         1 UNL       0.051700
     31 H10          1.3260    -0.0320     4.7740 ha         1 UNL       0.140000
     32 H11         -0.1620     0.5240     6.6540 ha         1 UNL       0.133000
     33 H12         -0.1700     2.8090     7.6180 ha         1 UNL       0.133000
     34 H13          1.2890     4.5600     6.6440 ha         1 UNL       0.133000
     35 H14          2.7640     4.0540     4.7860 ha         1 UNL       0.140000
     36 H15          5.0340    -0.9490    -0.1230 ha         1 UNL       0.146000
     37 H16          6.0960    -1.7150    -2.1400 ha         1 UNL       0.132000
     38 H17          4.8400    -1.8320    -4.2770 ha         1 UNL       0.131000
     39 H18          2.4680    -1.1130    -4.3360 ha         1 UNL       0.132000
     40 H19          1.3720    -0.2630    -2.3360 ha         1 UNL       0.146000
@<TRIPOS>BOND
     1     1     2 1   
     2     2     3 1   
     3     3     4 2   
     4     3     5 1   
     5     5     6 1   
     6     6     7 1   
     7     6     8 1   
     8     6     9 1   
     9     9    10 ar  
    10    10    11 ar  
    11    11    12 ar  
    12    12    13 ar  
    13    13    14 ar  
    14     9    14 ar  
    15     2    15 1   
    16    15    16 ar  
    17    16    17 ar  
    18    17    18 ar  
    19    18    19 ar  
    20    19    20 ar  
    21    15    20 ar  
    22     1    21 1   
    23     1    22 1   
    24     1    23 1   
    25     5    24 1   
    26     7    25 1   
    27     7    26 1   
    28     7    27 1   
    29     8    28 1   
    30     8    29 1   
    31     8    30 1   
    32    10    31 1   
    33    11    32 1   
    34    12    33 1   
    35    13    34 1   
    36    14    35 1   
    37    16    36 1   
    38    17    37 1   
    39    18    38 1   
    40    19    39 1   
    41    20    40 1   
@<TRIPOS>SUBSTRUCTURE
     1 UNL         1 TEMP              0 ****  ****    0 ROOT
