@<TRIPOS>MOLECULE
*****
 17 18 0 0 0
SMALL
GASTEIGER

@<TRIPOS>ATOM
      1 O           1.4081   -0.1180    0.8709 O.2     1  UNL1       -0.2520
      2 C           2.4861   -0.0938    0.2839 C.2     1  UNL1        0.3122
      3 N           3.0578    1.0817   -0.0887 N.am    1  UNL1       -0.2390
      4 C           4.0002    1.1989   -1.0710 C.2     1  UNL1        0.2354
      5 O           4.1814    2.2423   -1.6865 O.2     1  UNL1       -0.2742
      6 C           4.7824   -0.0401   -1.3433 C.3     1  UNL1        0.1235
      7 C           5.8647   -0.0126   -2.4177 C.3     1  UNL1       -0.0292
      8 C           6.2660   -0.0046   -0.9749 C.3     1  UNL1       -0.0292
      9 C           4.0606   -1.3160   -1.0735 C.2     1  UNL1        0.2354
     10 O           4.3019   -2.3515   -1.6814 O.2     1  UNL1       -0.2742
     11 N           3.1026   -1.2434   -0.1017 N.am    1  UNL1       -0.2390
     12 H           2.5062    1.9084    0.0924 H       1  UNL1        0.1591
     13 H           6.0059    0.8988   -2.9892 H       1  UNL1        0.0280
     14 H           6.0494   -0.9148   -2.9915 H       1  UNL1        0.0280
     15 H           6.6756    0.9147   -0.5699 H       1  UNL1        0.0280
     16 H           6.7198   -0.9039   -0.5722 H       1  UNL1        0.0280
     17 H           2.5883   -2.0945    0.0753 H       1  UNL1        0.1591
@<TRIPOS>BOND
     1     1     2    2
     2     2     3   am
     3     3     4   am
     4     4     5    2
     5     4     6    1
     6     6     7    1
     7     7     8    1
     8     6     8    1
     9     6     9    1
    10     9    10    2
    11     9    11   am
    12     2    11   am
    13     3    12    1
    14     7    13    1
    15     7    14    1
    16     8    15    1
    17     8    16    1
    18    11    17    1
