@<TRIPOS>MOLECULE
*****
 74 80 0 0 0
SMALL
GASTEIGER

@<TRIPOS>ATOM
      1 C           1.5140    0.2628   -1.9503 C.3     1  UNL1        0.0790
      2 O           2.8001    0.3177   -1.3504 O.3     1  UNL1       -0.4913
      3 C           3.2218    1.5199   -0.8496 C.ar    1  UNL1        0.1653
      4 C           2.5088    2.7227   -0.9196 C.ar    1  UNL1       -0.0123
      5 C           2.9024    3.9023   -0.2403 C.ar    1  UNL1       -0.0320
      6 C           1.8846    5.1130   -0.1417 C.3     1  UNL1        0.0233
      7 C           2.0587    6.0249    1.0769 C.ar    1  UNL1       -0.0298
      8 C           1.7248    7.3758    1.1029 C.ar    1  UNL1       -0.0120
      9 C           2.2670    8.1073    2.1200 C.ar    1  UNL1        0.1665
     10 C           3.0535    7.5005    3.0645 C.ar    1  UNL1        0.1666
     11 C           2.9990    6.1246    3.2501 C.ar    1  UNL1       -0.0102
     12 C           2.2440    5.4149    2.3325 C.ar    1  UNL1       -0.0109
     13 C           1.5130    4.0475    2.4508 C.3     1  UNL1        0.0938
     14 O           1.0899    3.8132    3.8167 O.3     1  UNL1       -0.3404
     15 C           0.4142    2.5655    3.9428 C.3     1  UNL1        0.1886
     16 O           1.2249    1.4644    3.5126 O.3     1  UNL1       -0.3405
     17 C           2.2817    1.2025    4.4419 C.3     1  UNL1        0.1137
     18 C           3.1966    0.0935    3.9275 C.3     1  UNL1        0.0794
     19 O           4.1507   -0.2877    4.9161 O.3     1  UNL1       -0.3489
     20 C           3.5681   -0.6210    6.1767 C.3     1  UNL1        0.1570
     21 C           2.8455   -1.9686    6.1535 C.3     1  UNL1       -0.0136
     22 O           2.7523    0.4329    6.6857 O.3     1  UNL1       -0.3431
     23 C           1.7016    0.7638    5.7861 C.3     1  UNL1        0.1183
     24 C           0.8058    1.8758    6.3421 C.3     1  UNL1        0.1144
     25 O           0.1216    1.4259    7.5209 O.3     1  UNL1       -0.3864
     26 C          -0.2363    2.2476    5.2927 C.3     1  UNL1        0.1341
     27 O          -1.1219    1.1015    5.1217 O.3     1  UNL1       -0.3841
     28 C           0.2390    4.0356    1.4510 C.3     1  UNL1        0.0375
     29 C          -0.2708    2.6709    0.9736 C.3     1  UNL1        0.0987
     30 O          -0.7148    2.7739   -0.3729 O.3     1  UNL1       -0.4640
     31 C          -0.2647    3.9484   -0.9200 C.2     1  UNL1        0.3116
     32 O          -0.3795    4.2381   -2.0831 O.2     1  UNL1       -0.2505
     33 C           0.4155    4.7592    0.1159 C.3     1  UNL1        0.0758
     34 O           3.7547    8.4284    3.7781 O.3     1  UNL1       -0.4526
     35 C           3.3021    9.6565    3.1495 C.3     1  UNL1        0.2332
     36 O           2.1869    9.4538    2.2612 O.3     1  UNL1       -0.4526
     37 C           4.2057    3.8782    0.3379 C.ar    1  UNL1       -0.0123
     38 C           4.9815    2.6951    0.3369 C.ar    1  UNL1        0.1653
     39 O           6.2402    2.4937    0.8408 O.3     1  UNL1       -0.4913
     40 C           6.9603    3.5760    1.3961 C.3     1  UNL1        0.0790
     41 C           4.4545    1.5236   -0.2205 C.ar    1  UNL1        0.2010
     42 O           5.1834    0.3587   -0.1588 O.3     1  UNL1       -0.5009
     43 H           1.3211   -0.7758   -2.2314 H       1  UNL1        0.0660
     44 H           1.4877    0.8691   -2.8602 H       1  UNL1        0.0660
     45 H           0.7302    0.5640   -1.2474 H       1  UNL1        0.0660
     46 H           1.6149    2.7217   -1.5216 H       1  UNL1        0.0658
     47 H           2.0101    5.7033   -1.0557 H       1  UNL1        0.0405
     48 H           1.0754    7.8406    0.3654 H       1  UNL1        0.0658
     49 H           3.4977    5.6528    4.0873 H       1  UNL1        0.0659
     50 H           2.2296    3.2642    2.1908 H       1  UNL1        0.0651
     51 H          -0.4544    2.5940    3.3004 H       1  UNL1        0.0938
     52 H           2.8996    2.1017    4.5754 H       1  UNL1        0.0647
     53 H           3.7451    0.4433    3.0457 H       1  UNL1        0.0587
     54 H           2.6241   -0.7801    3.5956 H       1  UNL1        0.0587
     55 H           4.4014   -0.7153    6.8802 H       1  UNL1        0.0907
     56 H           2.0321   -1.9985    5.4223 H       1  UNL1        0.0278
     57 H           2.4037   -2.1839    7.1314 H       1  UNL1        0.0278
     58 H           3.5378   -2.7688    5.8779 H       1  UNL1        0.0278
     59 H           1.0642   -0.1203    5.6570 H       1  UNL1        0.0651
     60 H           1.4020    2.7512    6.6221 H       1  UNL1        0.0648
     61 H          -0.6459    0.9029    7.2117 H       1  UNL1        0.2100
     62 H          -0.8683    3.0727    5.6393 H       1  UNL1        0.0671
     63 H          -0.7480    0.5428    4.4036 H       1  UNL1        0.2101
     64 H          -0.5834    4.5341    1.9847 H       1  UNL1        0.0370
     65 H          -1.1486    2.3471    1.5323 H       1  UNL1        0.0701
     66 H           0.4956    1.8923    1.0305 H       1  UNL1        0.0701
     67 H          -0.1957    5.6753    0.1481 H       1  UNL1        0.0427
     68 H           4.1062   10.1013    2.5457 H       1  UNL1        0.1166
     69 H           3.0241   10.3681    3.9323 H       1  UNL1        0.1166
     70 H           4.5987    4.7701    0.8189 H       1  UNL1        0.0658
     71 H           8.0158    3.2776    1.4226 H       1  UNL1        0.0660
     72 H           6.6372    3.7467    2.4260 H       1  UNL1        0.0660
     73 H           6.8918    4.4824    0.7917 H       1  UNL1        0.0660
     74 H           6.0304    0.6017    0.2613 H       1  UNL1        0.2924
@<TRIPOS>BOND
     1     1     2    1
     2     2     3    1
     3     3     4   ar
     4     4     5   ar
     5     5     6    1
     6     6     7    1
     7     7     8   ar
     8     8     9   ar
     9     9    10   ar
    10    10    11   ar
    11    11    12   ar
    12     7    12   ar
    13    12    13    1
    14    13    14    1
    15    14    15    1
    16    15    16    1
    17    16    17    1
    18    17    18    1
    19    18    19    1
    20    19    20    1
    21    20    21    1
    22    20    22    1
    23    22    23    1
    24    17    23    1
    25    23    24    1
    26    24    25    1
    27    24    26    1
    28    15    26    1
    29    26    27    1
    30    13    28    1
    31    28    29    1
    32    29    30    1
    33    30    31    1
    34    31    32    2
    35    31    33    1
    36     6    33    1
    37    28    33    1
    38    10    34    1
    39    34    35    1
    40    35    36    1
    41     9    36    1
    42     5    37   ar
    43    37    38   ar
    44    38    39    1
    45    39    40    1
    46    38    41   ar
    47     3    41   ar
    48    41    42    1
    49     1    43    1
    50     1    44    1
    51     1    45    1
    52     4    46    1
    53     6    47    1
    54     8    48    1
    55    11    49    1
    56    13    50    1
    57    15    51    1
    58    17    52    1
    59    18    53    1
    60    18    54    1
    61    20    55    1
    62    21    56    1
    63    21    57    1
    64    21    58    1
    65    23    59    1
    66    24    60    1
    67    25    61    1
    68    26    62    1
    69    27    63    1
    70    28    64    1
    71    29    65    1
    72    29    66    1
    73    33    67    1
    74    35    68    1
    75    35    69    1
    76    37    70    1
    77    40    71    1
    78    40    72    1
    79    40    73    1
    80    42    74    1
