@<TRIPOS>MOLECULE
*****
   40    43     1     0     0
SMALL
bcc


@<TRIPOS>ATOM
      1 C            1.3270     0.0840    -0.5140 c3         1 UNL      -0.082100
      2 C1           1.9260    -0.7750     0.6260 c3         1 UNL      -0.149000
      3 C2           0.9680    -1.9900     0.7610 c3         1 UNL      -0.058400
      4 C3           1.3050    -3.1230    -0.3100 c3         1 UNL      -0.070400
      5 C4           2.8040    -3.5620    -0.3530 c3         1 UNL       0.024800
      6 C5           3.6430    -2.3020    -0.4310 c2         1 UNL      -0.091400
      7 C6           4.5450    -2.0370    -1.3800 c2         1 UNL      -0.165200
      8 C7           4.8780    -2.9980    -2.4710 c3         1 UNL      -0.002900
      9 C8           4.2310    -4.3570    -2.3300 ca         1 UNL      -0.028300
     10 C9           4.6830    -5.3890    -3.1750 ca         1 UNL      -0.218000
     11 C10          4.1570    -6.6680    -3.0500 ca         1 UNL       0.126100
     12 O            4.5960    -7.7010    -3.8240 oh         1 UNL      -0.497100
     13 C11          3.1910    -6.9420    -2.0920 ca         1 UNL      -0.156000
     14 C12          2.7150    -5.9210    -1.2660 ca         1 UNL      -0.095000
     15 C13          3.2200    -4.6140    -1.3740 ca         1 UNL      -0.101300
     16 C14          3.3410    -1.4190     0.7360 c3         1 UNL      -0.031500
     17 C15          4.3860    -0.4970     1.3120 c3         1 UNL      -0.071400
     18 C16          3.6910     0.8310     1.3460 c3         1 UNL      -0.189400
     19 C17          2.2700     0.3300     1.6210 c          1 UNL       0.577100
     20 O1           1.5070     0.8090     2.4570 o          1 UNL      -0.518100
     21 H            1.0420    -0.4740    -1.4080 hc         1 UNL       0.045367
     22 H1           1.9210     0.9520    -0.8120 hc         1 UNL       0.045367
     23 H2           0.3810     0.5200    -0.1310 hc         1 UNL       0.045367
     24 H3          -0.0790    -1.6860     0.6060 hc         1 UNL       0.052200
     25 H4           1.0100    -2.4070     1.7700 hc         1 UNL       0.052200
     26 H5           1.0180    -2.7680    -1.3090 hc         1 UNL       0.048200
     27 H6           0.6700    -3.9910    -0.1030 hc         1 UNL       0.048200
     28 H7           3.0260    -4.0320     0.6180 hc         1 UNL       0.061700
     29 H8           5.1030    -1.1030    -1.3800 ha         1 UNL       0.126000
     30 H9           5.9680    -3.1310    -2.4700 hc         1 UNL       0.060700
     31 H10          4.5910    -2.5600    -3.4330 hc         1 UNL       0.060700
     32 H11          5.4620    -5.1770    -3.9050 ha         1 UNL       0.133000
     33 H12          5.2740    -7.3640    -4.4360 ho         1 UNL       0.418000
     34 H13          2.8130    -7.9560    -1.9830 ha         1 UNL       0.151000
     35 H14          1.9830    -6.1670    -0.5010 ha         1 UNL       0.135000
     36 H15          3.2510    -2.1420     1.5680 hc         1 UNL       0.058700
     37 H16          5.3610    -0.5150     0.8160 hc         1 UNL       0.051200
     38 H17          4.5800    -0.8030     2.3560 hc         1 UNL       0.051200
     39 H18          3.7570     1.2970     0.3570 hc         1 UNL       0.075200
     40 H19          4.0880     1.5030     2.1000 hc         1 UNL       0.075200
@<TRIPOS>BOND
     1     1     2 1   
     2     2     3 1   
     3     3     4 1   
     4     4     5 1   
     5     5     6 1   
     6     6     7 2   
     7     7     8 1   
     8     8     9 1   
     9     9    10 ar  
    10    10    11 ar  
    11    11    12 1   
    12    11    13 ar  
    13    13    14 ar  
    14    14    15 ar  
    15     9    15 ar  
    16     5    15 1   
    17     6    16 1   
    18     2    16 1   
    19    16    17 1   
    20    17    18 1   
    21    18    19 1   
    22     2    19 1   
    23    19    20 2   
    24     1    21 1   
    25     1    22 1   
    26     1    23 1   
    27     3    24 1   
    28     3    25 1   
    29     4    26 1   
    30     4    27 1   
    31     5    28 1   
    32     7    29 1   
    33     8    30 1   
    34     8    31 1   
    35    10    32 1   
    36    12    33 1   
    37    13    34 1   
    38    14    35 1   
    39    16    36 1   
    40    17    37 1   
    41    17    38 1   
    42    18    39 1   
    43    18    40 1   
@<TRIPOS>SUBSTRUCTURE
     1 UNL         1 TEMP              0 ****  ****    0 ROOT
