@<TRIPOS>MOLECULE
*****
   35    37     1     0     0
SMALL
bcc


@<TRIPOS>ATOM
      1 C            1.0090    -0.0520     0.0870 c3         1 UNL       0.081300
      2 N            2.4760    -0.0570     0.0210 n          1 UNL      -0.373000
      3 C1           3.1840    -0.9090    -0.8470 c          1 UNL       0.663100
      4 O            4.4150    -1.0320    -0.8540 o          1 UNL      -0.578100
      5 C2           2.4100    -1.7940    -1.8180 c3         1 UNL       0.061400
      6 O1           2.1540    -3.0300    -1.1610 os         1 UNL      -0.387400
      7 C3           1.9950    -4.0560    -1.9940 cc         1 UNL       0.556500
      8 N1           1.5580    -3.9030    -3.2210 nd         1 UNL      -0.598100
      9 C4           1.5490    -5.1270    -3.8620 ca         1 UNL       0.113400
     10 C5           1.1590    -5.3530    -5.1990 ca         1 UNL      -0.084000
     11 C6           1.2160    -6.6440    -5.7320 ca         1 UNL      -0.121000
     12 C7           1.6510    -7.7100    -4.9510 ca         1 UNL      -0.127000
     13 C8           2.0350    -7.5160    -3.6200 ca         1 UNL      -0.082000
     14 C9           1.9720    -6.2150    -3.0940 ca         1 UNL      -0.108100
     15 S            2.3570    -5.6540    -1.5110 ss         1 UNL       0.006900
     16 C10          3.1580     0.8250     0.9570 ca         1 UNL       0.050600
     17 C11          4.5070     1.1840     0.8110 ca         1 UNL      -0.141500
     18 C12          5.1460     2.0470     1.7120 ca         1 UNL      -0.116500
     19 C13          4.4470     2.5820     2.7850 ca         1 UNL      -0.141000
     20 C14          3.1100     2.2510     2.9570 ca         1 UNL      -0.116500
     21 C15          2.4760     1.3870     2.0540 ca         1 UNL      -0.141500
     22 H            0.5260    -0.6210    -0.7030 h1         1 UNL       0.048367
     23 H1           0.6520     0.9810    -0.0010 h1         1 UNL       0.048367
     24 H2           0.6840    -0.4920     1.0350 h1         1 UNL       0.048367
     25 H3           3.0660    -1.9310    -2.6910 h1         1 UNL       0.088200
     26 H4           1.4920    -1.3380    -2.1950 h1         1 UNL       0.088200
     27 H5           0.8230    -4.5170    -5.8050 ha         1 UNL       0.153000
     28 H6           0.9160    -6.8120    -6.7640 ha         1 UNL       0.138000
     29 H7           1.6940    -8.7100    -5.3810 ha         1 UNL       0.138000
     30 H8           2.3780    -8.3490    -3.0140 ha         1 UNL       0.140000
     31 H9           5.1100     0.8330    -0.0200 ha         1 UNL       0.145500
     32 H10          6.1930     2.2970     1.5620 ha         1 UNL       0.133500
     33 H11          4.9430     3.2520     3.4820 ha         1 UNL       0.133000
     34 H12          2.5550     2.6580     3.7980 ha         1 UNL       0.133500
     35 H13          1.4360     1.1550     2.2610 ha         1 UNL       0.145500
@<TRIPOS>BOND
     1     1     2 1   
     2     2     3 1   
     3     3     4 2   
     4     3     5 1   
     5     5     6 1   
     6     6     7 1   
     7     7     8 2   
     8     8     9 1   
     9     9    10 ar  
    10    10    11 ar  
    11    11    12 ar  
    12    12    13 ar  
    13    13    14 ar  
    14     9    14 ar  
    15    14    15 1   
    16     7    15 1   
    17     2    16 1   
    18    16    17 ar  
    19    17    18 ar  
    20    18    19 ar  
    21    19    20 ar  
    22    20    21 ar  
    23    16    21 ar  
    24     1    22 1   
    25     1    23 1   
    26     1    24 1   
    27     5    25 1   
    28     5    26 1   
    29    10    27 1   
    30    11    28 1   
    31    12    29 1   
    32    13    30 1   
    33    17    31 1   
    34    18    32 1   
    35    19    33 1   
    36    20    34 1   
    37    21    35 1   
@<TRIPOS>SUBSTRUCTURE
     1 UNL         1 TEMP              0 ****  ****    0 ROOT
