@<TRIPOS>MOLECULE
*****
   34    36     1     0     0
SMALL
bcc


@<TRIPOS>ATOM
      1 C            3.4800     0.4730    -0.8990 c3         1 UNL      -0.096100
      2 C1           2.5870    -0.0800     0.2140 c3         1 UNL       0.194800
      3 N            3.0120     0.3840     1.5450 na         1 UNL      -0.623700
      4 C2           2.3770     1.5450     2.0110 ca         1 UNL       0.108600
      5 C3           1.0650     1.4740     2.5050 ca         1 UNL      -0.142000
      6 C4           0.4230     2.6110     3.0000 ca         1 UNL      -0.120000
      7 C5           1.0750     3.8420     2.9750 ca         1 UNL      -0.124000
      8 C6           2.3660     3.9350     2.4540 ca         1 UNL      -0.134000
      9 C7           3.0220     2.7840     1.9970 ca         1 UNL       0.033600
     10 N1           4.3520     2.8430     1.5050 n          1 UNL      -0.284000
     11 C8           4.6580     3.9130     0.5550 c3         1 UNL       0.062300
     12 C9           5.3430     2.2420     2.3000 cs         1 UNL       0.455000
     13 S            6.5910     3.2030     2.9530 s          1 UNL      -0.503400
     14 C10          5.2860     0.7320     2.4820 ca         1 UNL      -0.228900
     15 C11          6.3900     0.0730     3.0670 ca         1 UNL      -0.030000
     16 C12          6.4790    -1.3120     3.0850 ca         1 UNL      -0.271300
     17 C13          5.4720    -2.0270     2.4880 ca         1 UNL       0.434200
     18 N2           4.3890    -1.4500     1.9330 nb         1 UNL      -0.705000
     19 C14          4.2670    -0.0850     1.9600 ca         1 UNL       0.638200
     20 H            3.1080     0.1550    -1.8780 hc         1 UNL       0.046033
     21 H1           4.5110     0.1170    -0.8030 hc         1 UNL       0.046033
     22 H2           3.5010     1.5670    -0.8920 hc         1 UNL       0.046033
     23 H3           2.5860    -1.1760     0.1670 h1         1 UNL       0.046200
     24 H4           1.5540     0.2230     0.0060 h1         1 UNL       0.046200
     25 H5           0.5540     0.5150     2.5380 ha         1 UNL       0.146000
     26 H6          -0.5770     2.5310     3.4180 ha         1 UNL       0.140000
     27 H7           0.5860     4.7250     3.3780 ha         1 UNL       0.140000
     28 H8           2.8750     4.8940     2.4660 ha         1 UNL       0.144000
     29 H9           3.7680     4.1940    -0.0110 h1         1 UNL       0.064033
     30 H10          5.3930     3.5140    -0.1550 h1         1 UNL       0.064033
     31 H11          5.0830     4.7890     1.0520 h1         1 UNL       0.064033
     32 H12          7.2180     0.6240     3.5050 ha         1 UNL       0.168000
     33 H13          7.3300    -1.8120     3.5330 ha         1 UNL       0.151000
     34 H14          5.5010    -3.1100     2.4500 h4         1 UNL       0.025100
@<TRIPOS>BOND
     1     1     2 1   
     2     2     3 1   
     3     3     4 1   
     4     4     5 ar  
     5     5     6 ar  
     6     6     7 ar  
     7     7     8 ar  
     8     8     9 ar  
     9     4     9 ar  
    10     9    10 1   
    11    10    11 1   
    12    10    12 1   
    13    12    13 2   
    14    12    14 1   
    15    14    15 ar  
    16    15    16 ar  
    17    16    17 ar  
    18    17    18 ar  
    19    18    19 ar  
    20    14    19 ar  
    21     3    19 1   
    22     1    20 1   
    23     1    21 1   
    24     1    22 1   
    25     2    23 1   
    26     2    24 1   
    27     5    25 1   
    28     6    26 1   
    29     7    27 1   
    30     8    28 1   
    31    11    29 1   
    32    11    30 1   
    33    11    31 1   
    34    15    32 1   
    35    16    33 1   
    36    17    34 1   
@<TRIPOS>SUBSTRUCTURE
     1 UNL         1 TEMP              0 ****  ****    0 ROOT
