@<TRIPOS>MOLECULE
*****
   31    33     1     0     0
SMALL
bcc


@<TRIPOS>ATOM
      1 O5*          1.0500     0.2510    -0.2130 oh         1 I1       -0.614800
      2 C5*          2.4440     0.0360     0.0260 c3         1 I1        0.123400
      3 C4*          2.9250     0.8680     1.2180 c3         1 I1        0.102100
      4 O4*          2.2970     0.4090     2.4340 os         1 I1       -0.406600
      5 C1*          2.0740     1.5650     3.2720 c3         1 I1        0.221800
      6 N9           2.5360     1.2680     4.6090 na         1 I1       -0.277000
      7 C8           1.7670     1.2620     5.7450 cc         1 I1        0.437700
      8 N7           2.4780     0.9990     6.8250 nd         1 I1       -0.546100
      9 C5           3.7590     0.8110     6.3550 ca         1 I1       -0.235200
     10 C6           4.9720     0.5400     6.9860 ca         1 I1        0.724600
     11 O6           5.0760     0.4070     8.3470 oh         1 I1       -0.579300
     12 N1           6.1050     0.4220     6.2680 nb         1 I1       -0.725000
     13 C2           6.0060     0.5770     4.9320 ca         1 I1        0.676900
     14 N3           4.9050     0.8490     4.1970 nb         1 I1       -0.740000
     15 C4           3.8120     0.9490     4.9790 ca         1 I1        0.456800
     16 C2*          2.7030     2.7960     2.5820 c3         1 I1        0.097100
     17 O2*          4.0590     3.1040     2.9120 oh         1 I1       -0.565800
     18 C3*          2.6310     2.3730     1.1250 c3         1 I1        0.103100
     19 O3*          1.3230     2.6880     0.6450 oh         1 I1       -0.582800
     20 H5*          0.7920    -0.3570    -0.9300 ho         1 I1        0.412000
     21 H5*1         2.9890     0.3190    -0.8790 h1         1 I1        0.047200
     22 H5*2         2.5890    -1.0320     0.2210 h1         1 I1        0.047200
     23 H4*          4.0010     0.7010     1.3520 h1         1 I1        0.082700
     24 H1*          0.9880     1.6920     3.3170 h2         1 I1        0.097700
     25 H8           0.7020     1.4580     5.7320 h5         1 I1        0.079800
     26 H6           4.1690     0.5470     8.6730 ho         1 I1        0.452000
     27 H2           6.9370     0.4850     4.3780 h5         1 I1        0.060100
     28 H2*          2.1110     3.6920     2.7950 h1         1 I1        0.101700
     29 H7           4.5400     2.2750     3.1130 ho         1 I1        0.419000
     30 H3*          3.3670     2.8750     0.4880 h1         1 I1        0.107700
     31 H9           0.9110     1.8550     0.3230 ho         1 I1        0.423000
@<TRIPOS>BOND
     1     1     2 1   
     2     2     3 1   
     3     3     4 1   
     4     4     5 1   
     5     5     6 1   
     6     6     7 1   
     7     7     8 2   
     8     8     9 1   
     9     9    10 ar  
    10    10    11 1   
    11    10    12 ar  
    12    12    13 ar  
    13    13    14 ar  
    14    14    15 ar  
    15     9    15 ar  
    16     6    15 1   
    17     5    16 1   
    18    16    17 1   
    19    16    18 1   
    20     3    18 1   
    21    18    19 1   
    22     1    20 1   
    23     2    21 1   
    24     2    22 1   
    25     3    23 1   
    26     5    24 1   
    27     7    25 1   
    28    11    26 1   
    29    13    27 1   
    30    16    28 1   
    31    17    29 1   
    32    18    30 1   
    33    19    31 1   
@<TRIPOS>SUBSTRUCTURE
     1 I1          1 TEMP              0 ****  ****    0 ROOT
