@<TRIPOS>MOLECULE
*****
 17 18 0 0 0
SMALL
GASTEIGER

@<TRIPOS>ATOM
      1 C           1.3870   -0.2427    0.0796 C.ar    1  UNL1       -0.0617
      2 C           0.4961   -1.3098    0.0055 C.ar    1  UNL1       -0.0614
      3 C          -0.8784   -1.0686   -0.0710 C.ar    1  UNL1       -0.0560
      4 C          -1.3935    0.2386   -0.0768 C.ar    1  UNL1       -0.0167
      5 C          -2.8718    0.4951   -0.1973 C.3     1  UNL1        0.1070
      6 C          -3.6148    1.2188    0.9008 C.3     1  UNL1        0.0789
      7 O          -3.7469   -0.1929    0.7162 O.3     1  UNL1       -0.3668
      8 C          -0.4728    1.2968    0.0003 C.ar    1  UNL1       -0.0560
      9 C           0.9029    1.0623    0.0799 C.ar    1  UNL1       -0.0614
     10 H           2.4562   -0.4279    0.1364 H       1  UNL1        0.0618
     11 H           0.8677   -2.3311    0.0056 H       1  UNL1        0.0618
     12 H          -1.5639   -1.9120   -0.1277 H       1  UNL1        0.0621
     13 H          -3.2479    0.6244   -1.2081 H       1  UNL1        0.0669
     14 H          -4.4540    1.8430    0.6209 H       1  UNL1        0.0589
     15 H          -3.0711    1.5577    1.7736 H       1  UNL1        0.0589
     16 H          -0.8324    2.3238   -0.0041 H       1  UNL1        0.0621
     17 H           1.5937    1.8988    0.1386 H       1  UNL1        0.0618
@<TRIPOS>BOND
     1     1     2   ar
     2     2     3   ar
     3     3     4   ar
     4     4     5    1
     5     5     6    1
     6     6     7    1
     7     5     7    1
     8     4     8   ar
     9     8     9   ar
    10     1     9   ar
    11     1    10    1
    12     2    11    1
    13     3    12    1
    14     5    13    1
    15     6    14    1
    16     6    15    1
    17     8    16    1
    18     9    17    1
