@<TRIPOS>MOLECULE
*****
 43 45 0 0 0
SMALL
GASTEIGER

@<TRIPOS>ATOM
      1 O           1.1270    0.6825    0.2192 O.2     1  UNL1       -0.2449
      2 C           2.2418    0.1963    0.1251 C.2     1  UNL1        0.3411
      3 O           2.8798   -0.5077    1.1228 O.3     1  UNL1       -0.4584
      4 C           2.7024   -0.3147    2.5616 C.3     1  UNL1        0.1208
      5 C           3.5089    0.8758    3.0738 C.3     1  UNL1        0.1122
      6 O           3.3529    1.0898    4.4769 O.3     1  UNL1       -0.3861
      7 C           4.9929    0.6230    2.7976 C.3     1  UNL1        0.0733
      8 O           5.7930    1.7044    3.2554 O.3     1  UNL1       -0.3923
      9 C           2.9108    0.3143   -1.1494 C.ar    1  UNL1        0.0801
     10 C           2.6622    1.3971   -1.9808 C.ar    1  UNL1       -0.0460
     11 C           3.4234    1.6854   -3.1142 C.ar    1  UNL1       -0.0609
     12 C           4.5170    0.8667   -3.3786 C.ar    1  UNL1       -0.0600
     13 C           4.7656   -0.2816   -2.5267 C.ar    1  UNL1       -0.0397
     14 C           3.8009   -0.6785   -1.4736 C.ar    1  UNL1        0.0454
     15 N           3.5199   -2.0058   -0.7012 N.pl3   1  UNL1       -0.3133
     16 C           4.4932   -3.3029   -0.2362 C.ar    1  UNL1        0.0421
     17 C           5.4780   -4.6668    0.2585 C.ar    1  UNL1       -0.0218
     18 C           5.3593   -5.9554    0.7893 C.ar    1  UNL1        0.0300
     19 N           4.3153   -5.3949    0.6576 N.ar    1  UNL1       -0.2548
     20 C           3.0602   -5.2005    0.6321 C.ar    1  UNL1        0.0741
     21 C           2.3440   -6.2499    0.8818 C.ar    1  UNL1       -0.0173
     22 C           1.0318   -5.9991    0.9186 C.ar    1  UNL1        0.0430
     23 CL          0.0701   -7.1724    1.6993 Cl      1  UNL1       -0.0835
     24 C           0.5844   -4.7124    0.5660 C.ar    1  UNL1       -0.0426
     25 C           1.5292   -3.7082    0.2381 C.ar    1  UNL1       -0.0494
     26 C           2.9881   -3.9540    0.1764 C.ar    1  UNL1        0.0216
     27 H           3.0043   -1.2444    3.0390 H       1  UNL1        0.0724
     28 H           1.6851   -0.0937    2.8890 H       1  UNL1        0.0724
     29 H           3.1534    1.7812    2.5890 H       1  UNL1        0.0650
     30 H           3.6817    0.3044    4.9452 H       1  UNL1        0.2100
     31 H           5.1612    0.4979    1.7262 H       1  UNL1        0.0584
     32 H           5.3440   -0.2801    3.3144 H       1  UNL1        0.0584
     33 H           5.4240    2.5174    2.8683 H       1  UNL1        0.2095
     34 H           1.7903    2.0112   -1.7515 H       1  UNL1        0.0626
     35 H           3.1663    2.5437   -3.7352 H       1  UNL1        0.0618
     36 H           5.1153    1.1294   -4.2689 H       1  UNL1        0.0618
     37 H           5.7723   -0.6908   -2.7363 H       1  UNL1        0.0636
     38 H           2.6087   -2.2417   -1.1027 H       1  UNL1        0.1522
     39 H           6.6309   -4.8289    0.1410 H       1  UNL1        0.0651
     40 H           4.9775   -6.8953    1.1955 H       1  UNL1        0.0830
     41 H           2.8580   -7.1406    1.2217 H       1  UNL1        0.0653
     42 H          -0.4842   -4.4746    0.5893 H       1  UNL1        0.0632
     43 H           1.0880   -2.7276    0.0264 H       1  UNL1        0.0625
@<TRIPOS>BOND
     1     1     2    2
     2     2     3    1
     3     3     4    1
     4     4     5    1
     5     5     6    1
     6     5     7    1
     7     7     8    1
     8     2     9    1
     9     9    10   ar
    10    10    11   ar
    11    11    12   ar
    12    12    13   ar
    13    13    14   ar
    14     9    14   ar
    15    14    15    1
    16    15    16    1
    17    16    17   ar
    18    17    18   ar
    19    18    19   ar
    20    19    20   ar
    21    20    21   ar
    22    21    22   ar
    23    22    23    1
    24    22    24   ar
    25    24    25   ar
    26    25    26   ar
    27    16    26   ar
    28    20    26   ar
    29     4    27    1
    30     4    28    1
    31     5    29    1
    32     6    30    1
    33     7    31    1
    34     7    32    1
    35     8    33    1
    36    10    34    1
    37    11    35    1
    38    12    36    1
    39    13    37    1
    40    15    38    1
    41    17    39    1
    42    18    40    1
    43    21    41    1
    44    24    42    1
    45    25    43    1
