@<TRIPOS>MOLECULE
*****
 32 32 0 0 0
SMALL
GASTEIGER

@<TRIPOS>ATOM
      1 O           3.3608    3.3964   -1.9532 O.2     1  UNL1       -0.2795
      2 C           4.4039    3.0140   -2.4610 C.2     1  UNL1        0.2014
      3 N           5.0610    1.8702   -2.1072 N.am    1  UNL1       -0.2958
      4 C           4.5574    1.0183   -1.0396 C.3     1  UNL1        0.1405
      5 N           5.1328   -0.3299   -1.3020 N.pl3   1  UNL1       -0.2878
      6 C           4.2722   -1.4372   -1.4441 C.2     1  UNL1        0.0122
      7 C           4.7225   -2.7021   -1.3583 C.2     1  UNL1        0.0122
      8 N           6.0781   -2.9946   -1.1260 N.pl3   1  UNL1       -0.2878
      9 C           6.4769   -4.3663   -0.7048 C.3     1  UNL1        0.1405
     10 N           7.3709   -4.8332   -1.7538 N.am    1  UNL1       -0.2958
     11 C           7.6083   -6.1635   -1.9464 C.2     1  UNL1        0.2014
     12 O           7.0730   -7.0581   -1.3089 O.2     1  UNL1       -0.2795
     13 C           7.0072   -4.5073    0.8032 C.3     1  UNL1        0.2251
     14 CL          6.6813   -3.0753    1.8634 Cl      1  UNL1       -0.0795
     15 CL          6.2048   -5.8989    1.6429 Cl      1  UNL1       -0.0795
     16 CL          8.7993   -4.7827    0.8841 Cl      1  UNL1       -0.0795
     17 C           6.9525   -1.8940   -1.1177 C.2     1  UNL1        0.0122
     18 C           6.5019   -0.6253   -1.2022 C.2     1  UNL1        0.0122
     19 C           4.7168    1.5667    0.4627 C.3     1  UNL1        0.2251
     20 CL          5.7315    3.0689    0.5611 Cl      1  UNL1       -0.0795
     21 CL          3.0944    1.9615    1.1707 Cl      1  UNL1       -0.0795
     22 CL          5.4705    0.4078    1.6340 Cl      1  UNL1       -0.0795
     23 H           4.9266    3.5656   -3.2649 H       1  UNL1        0.1252
     24 H           5.9170    1.6028   -2.5678 H       1  UNL1        0.1503
     25 H           3.4773    0.9529   -1.2303 H       1  UNL1        0.0755
     26 H           3.2205   -1.2144   -1.6054 H       1  UNL1        0.0797
     27 H           4.0540   -3.5516   -1.4543 H       1  UNL1        0.0797
     28 H           5.5864   -5.0071   -0.7820 H       1  UNL1        0.0755
     29 H           7.8688   -4.1414   -2.2929 H       1  UNL1        0.1503
     30 H           8.3487   -6.3474   -2.7424 H       1  UNL1        0.1252
     31 H           8.0060   -2.1204   -0.9808 H       1  UNL1        0.0797
     32 H           7.1717    0.2243   -1.1291 H       1  UNL1        0.0797
@<TRIPOS>BOND
     1     1     2    2
     2     2     3   am
     3     3     4    1
     4     4     5    1
     5     5     6    1
     6     6     7    2
     7     7     8    1
     8     8     9    1
     9     9    10    1
    10    10    11   am
    11    11    12    2
    12     9    13    1
    13    13    14    1
    14    13    15    1
    15    13    16    1
    16     8    17    1
    17    17    18    2
    18     5    18    1
    19     4    19    1
    20    19    20    1
    21    19    21    1
    22    19    22    1
    23     2    23    1
    24     3    24    1
    25     4    25    1
    26     6    26    1
    27     7    27    1
    28     9    28    1
    29    10    29    1
    30    11    30    1
    31    17    31    1
    32    18    32    1
