@<TRIPOS>MOLECULE
*****
   26    27     1     0     0
SMALL
bcc


@<TRIPOS>ATOM
      1 Cl           0.9800    -0.1600     0.0360 cl         1 UNL      -0.058900
      2 C            2.7150    -0.0300     0.0370 c2         1 UNL       0.085800
      3 Cl1          3.5020    -0.9470     1.2910 cl         1 UNL      -0.058900
      4 C1           3.3960     0.7240    -0.8580 ce         1 UNL       0.000600
      5 C2           2.6620     1.5440    -1.8540 ca         1 UNL      -0.060800
      6 C3           2.2710     2.8510    -1.5270 ca         1 UNL      -0.098250
      7 C4           1.6110     3.6450    -2.4680 ca         1 UNL      -0.125750
      8 C5           1.3440     3.1340    -3.7360 ca         1 UNL       0.024900
      9 Cl2          0.5420     4.1160    -4.9000 cl         1 UNL      -0.089400
     10 C6           1.7270     1.8370    -4.0690 ca         1 UNL      -0.125750
     11 C7           2.3840     1.0400    -3.1310 ca         1 UNL      -0.098250
     12 C8           4.8790     0.7410    -0.8380 ca         1 UNL      -0.060800
     13 C9           5.6020    -0.2130    -1.5690 ca         1 UNL      -0.098250
     14 C10          7.0000    -0.1950    -1.5600 ca         1 UNL      -0.125750
     15 C11          7.6750     0.7750    -0.8240 ca         1 UNL       0.024900
     16 Cl3          9.3950     0.7960    -0.8110 cl         1 UNL      -0.089400
     17 C12          6.9670     1.7320    -0.0990 ca         1 UNL      -0.125750
     18 C13          5.5680     1.7140    -0.1040 ca         1 UNL      -0.098250
     19 H            2.4800     3.2610    -0.5410 ha         1 UNL       0.143750
     20 H1           1.3150     4.6580    -2.2070 ha         1 UNL       0.150500
     21 H2           1.5160     1.4390    -5.0610 ha         1 UNL       0.150500
     22 H3           2.6790     0.0290    -3.4030 ha         1 UNL       0.143750
     23 H4           5.0860    -0.9740    -2.1490 ha         1 UNL       0.143750
     24 H5           7.5530    -0.9400    -2.1270 ha         1 UNL       0.150500
     25 H6           7.4940     2.4900     0.4730 ha         1 UNL       0.150500
     26 H7           5.0270     2.4640     0.4670 ha         1 UNL       0.143750
@<TRIPOS>BOND
     1     1     2 1   
     2     2     3 1   
     3     2     4 2   
     4     4     5 1   
     5     5     6 ar  
     6     6     7 ar  
     7     7     8 ar  
     8     8     9 1   
     9     8    10 ar  
    10    10    11 ar  
    11     5    11 ar  
    12     4    12 1   
    13    12    13 ar  
    14    13    14 ar  
    15    14    15 ar  
    16    15    16 1   
    17    15    17 ar  
    18    17    18 ar  
    19    12    18 ar  
    20     6    19 1   
    21     7    20 1   
    22    10    21 1   
    23    11    22 1   
    24    13    23 1   
    25    14    24 1   
    26    17    25 1   
    27    18    26 1   
@<TRIPOS>SUBSTRUCTURE
     1 UNL         1 TEMP              0 ****  ****    0 ROOT
