@<TRIPOS>MOLECULE
*****
 32 34 0 0 0
SMALL
GASTEIGER

@<TRIPOS>ATOM
      1 O           2.0091   -1.7451    0.1204 O.2     1  UNL1       -0.2830
      2 C           1.5163   -0.6218    0.0665 C.ar    1  UNL1        0.2379
      3 C           2.4411    0.5334    0.0172 C.ar    1  UNL1        0.2083
      4 O           3.7970    0.2548   -0.0088 O.3     1  UNL1       -0.5007
      5 C           1.9299    1.7730   -0.0154 C.ar    1  UNL1        0.1841
      6 C           2.8100    2.9422   -0.1493 C.ar    1  UNL1        0.0626
      7 C           3.3259    3.5725    0.9929 C.ar    1  UNL1       -0.0440
      8 C           4.2466    4.6181    0.8698 C.ar    1  UNL1       -0.0193
      9 C           4.6490    5.0307   -0.3975 C.ar    1  UNL1        0.1204
     10 O           5.5641    6.0289   -0.5630 O.3     1  UNL1       -0.5066
     11 C           4.1362    4.4325   -1.5429 C.ar    1  UNL1        0.0220
     12 C           3.2169    3.3924   -1.4145 C.ar    1  UNL1        0.1311
     13 O           2.7100    2.7896   -2.5356 O.3     1  UNL1       -0.5059
     14 O           0.5806    2.0705    0.0279 O.2     1  UNL1       -0.4506
     15 C          -0.3149    1.0256    0.0295 C.ar    1  UNL1        0.1465
     16 C          -1.6682    1.3763    0.0129 C.ar    1  UNL1        0.0231
     17 C          -2.6302    0.3720   -0.0067 C.ar    1  UNL1        0.1239
     18 O          -3.9624    0.6607   -0.0286 O.3     1  UNL1       -0.5065
     19 C          -2.2655   -0.9698   -0.0087 C.ar    1  UNL1        0.0223
     20 C          -0.9137   -1.3165    0.0143 C.ar    1  UNL1        0.1348
     21 O          -0.5736   -2.6388    0.0067 O.3     1  UNL1       -0.5058
     22 C           0.0706   -0.3197    0.0376 C.ar    1  UNL1        0.1092
     23 H           3.8410   -0.7267   -0.0094 H       1  UNL1        0.2924
     24 H           3.0327    3.2335    1.9837 H       1  UNL1        0.0627
     25 H           4.6463    5.0820    1.7663 H       1  UNL1        0.0654
     26 H           5.8738    6.3159    0.3120 H       1  UNL1        0.2921
     27 H           4.4709    4.7764   -2.5157 H       1  UNL1        0.0691
     28 H           3.1645    3.1504   -3.3135 H       1  UNL1        0.2922
     29 H          -1.9484    2.4249    0.0108 H       1  UNL1        0.0691
     30 H          -4.0787    1.6254   -0.0431 H       1  UNL1        0.2921
     31 H          -3.0429   -1.7278   -0.0301 H       1  UNL1        0.0691
     32 H          -1.3708   -3.1912   -0.0278 H       1  UNL1        0.2922
@<TRIPOS>BOND
     1     1     2    2
     2     2     3   ar
     3     3     4    1
     4     3     5   ar
     5     5     6    1
     6     6     7   ar
     7     7     8   ar
     8     8     9   ar
     9     9    10    1
    10     9    11   ar
    11    11    12   ar
    12     6    12   ar
    13    12    13    1
    14     5    14   ar
    15    14    15   ar
    16    15    16   ar
    17    16    17   ar
    18    17    18    1
    19    17    19   ar
    20    19    20   ar
    21    20    21    1
    22    20    22   ar
    23     2    22   ar
    24    15    22   ar
    25     4    23    1
    26     7    24    1
    27     8    25    1
    28    10    26    1
    29    11    27    1
    30    13    28    1
    31    16    29    1
    32    18    30    1
    33    19    31    1
    34    21    32    1
