@<TRIPOS>MOLECULE
*****
   42    43     1     0     0
SMALL
bcc


@<TRIPOS>ATOM
      1 C            3.3580    -2.2070    -6.7090 c3         1 UNL      -0.133100
      2 C1           2.3360    -1.6030    -5.7650 c3         1 UNL       0.140400
      3 O            2.9310    -0.4290    -5.2010 os         1 UNL      -0.420900
      4 C2           3.5930    -0.5950    -4.0300 c          1 UNL       0.646700
      5 O1           3.4820    -1.5110    -3.2400 o          1 UNL      -0.554000
      6 C3           4.5410     0.5180    -3.8510 ca         1 UNL      -0.007600
      7 C4           4.1690     1.8040    -4.2920 ca         1 UNL      -0.113000
      8 C5           5.0390     2.8850    -4.1500 ca         1 UNL      -0.079000
      9 C6           6.2760     2.7010    -3.5430 ca         1 UNL      -0.135000
     10 C7           6.6520     1.4340    -3.0970 ca         1 UNL      -0.011000
     11 C8           5.7940     0.3300    -3.2560 ca         1 UNL      -0.318500
     12 S            6.5280    -1.2940    -3.0680 sy         1 UNL       1.520200
     13 O2           6.2330    -1.9920    -4.3010 o          1 UNL      -0.636800
     14 O3           7.8890    -1.0410    -2.6360 o          1 UNL      -0.636800
     15 N            5.7410    -2.0590    -1.7870 n7         1 UNL      -0.672100
     16 N1           6.0720    -3.4800    -1.4440 n          1 UNL      -0.246700
     17 C9           7.1650    -4.1430    -2.0010 c          1 UNL       0.673900
     18 O4           7.9730    -3.7600    -2.8370 o          1 UNL      -0.518100
     19 C10          5.2570    -4.1700    -0.5010 ca         1 UNL       0.768900
     20 N2           4.3140    -3.4930     0.1690 nb         1 UNL      -0.713000
     21 C11          3.6390    -4.2000     1.0970 ca         1 UNL       0.556300
     22 Cl           2.4980    -3.2830     1.9960 cl         1 UNL      -0.126000
     23 C12          3.8160    -5.5310     1.3740 ca         1 UNL      -0.381600
     24 C13          4.7710    -6.1340     0.6120 ca         1 UNL       0.687600
     25 O5           4.9950    -7.4790     0.8130 os         1 UNL      -0.433100
     26 C14          5.9660    -8.0290    -0.0800 c3         1 UNL       0.121700
     27 N3           5.4980    -5.4790    -0.3050 nb         1 UNL      -0.796000
     28 H            2.9750    -3.1070    -7.1940 hc         1 UNL       0.058700
     29 H1           4.2770    -2.4580    -6.1700 hc         1 UNL       0.058700
     30 H2           3.6380    -1.4780    -7.4770 hc         1 UNL       0.058700
     31 H3           2.0170    -2.3180    -4.9990 h1         1 UNL       0.062700
     32 H4           1.4450    -1.2930    -6.3220 h1         1 UNL       0.062700
     33 H5           3.2080     1.9680    -4.7760 ha         1 UNL       0.154000
     34 H6           4.7580     3.8650    -4.5300 ha         1 UNL       0.141000
     35 H7           6.9700     3.5340    -3.4530 ha         1 UNL       0.144000
     36 H8           7.6560     1.3070    -2.6930 ha         1 UNL       0.171000
     37 H9           4.7780    -1.7720    -1.5770 hn         1 UNL       0.470800
     38 H10          7.2980    -5.1590    -1.5990 h5         1 UNL       0.071200
     39 H11          3.2570    -6.0660     2.1260 ha         1 UNL       0.186000
     40 H12          6.0560    -9.0980     0.1320 h1         1 UNL       0.058700
     41 H13          6.9500    -7.5730     0.0790 h1         1 UNL       0.058700
     42 H14          5.6520    -7.9220    -1.1250 h1         1 UNL       0.058700
@<TRIPOS>BOND
     1     1     2 1   
     2     2     3 1   
     3     3     4 1   
     4     4     5 2   
     5     4     6 1   
     6     6     7 ar  
     7     7     8 ar  
     8     8     9 ar  
     9     9    10 ar  
    10    10    11 ar  
    11     6    11 ar  
    12    11    12 1   
    13    12    13 2   
    14    12    14 2   
    15    12    15 1   
    16    15    16 1   
    17    16    17 1   
    18    17    18 2   
    19    16    19 1   
    20    19    20 ar  
    21    20    21 ar  
    22    21    22 1   
    23    21    23 ar  
    24    23    24 ar  
    25    24    25 1   
    26    25    26 1   
    27    24    27 ar  
    28    19    27 ar  
    29     1    28 1   
    30     1    29 1   
    31     1    30 1   
    32     2    31 1   
    33     2    32 1   
    34     7    33 1   
    35     8    34 1   
    36     9    35 1   
    37    10    36 1   
    38    15    37 1   
    39    17    38 1   
    40    23    39 1   
    41    26    40 1   
    42    26    41 1   
    43    26    42 1   
@<TRIPOS>SUBSTRUCTURE
     1 UNL         1 TEMP              0 ****  ****    0 ROOT
