@<TRIPOS>MOLECULE
*****
 38 39 0 0 0
SMALL
GASTEIGER

@<TRIPOS>ATOM
      1 O           3.4048   -0.0304   -4.7730 O.3     1  UNL1       -0.3903
      2 C           4.1892   -1.0896   -4.2597 C.3     1  UNL1        0.0727
      3 C           3.4331   -2.3889   -4.1218 C.ar    1  UNL1        0.0196
      4 C           3.3294   -3.1963   -5.2790 C.ar    1  UNL1       -0.0529
      5 C           2.9618   -4.5290   -5.1875 C.ar    1  UNL1       -0.0612
      6 C           2.7114   -5.0596   -3.9224 C.ar    1  UNL1       -0.0583
      7 C           2.6966   -4.2310   -2.7868 C.ar    1  UNL1       -0.0195
      8 C           2.9793   -2.8631   -2.8737 C.ar    1  UNL1        0.1293
      9 O           2.9264   -1.9699   -1.8186 O.3     1  UNL1       -0.4605
     10 C           2.0361   -2.2484   -0.7012 C.3     1  UNL1        0.2308
     11 O           0.8027   -1.5138   -0.7467 O.3     1  UNL1       -0.3313
     12 C           0.8619   -0.1379   -0.3444 C.3     1  UNL1        0.1140
     13 C          -0.5664    0.4429   -0.4692 C.3     1  UNL1        0.0731
     14 O          -1.5541   -0.2463    0.3032 O.3     1  UNL1       -0.3924
     15 C           1.4201    0.0278    1.0768 C.3     1  UNL1        0.1120
     16 O           0.5334   -0.5318    2.0576 O.3     1  UNL1       -0.3865
     17 C           2.7801   -0.6542    1.2197 C.3     1  UNL1        0.1152
     18 O           3.0840   -0.7110    2.6360 O.3     1  UNL1       -0.3864
     19 C           2.7754   -2.0853    0.6547 C.3     1  UNL1        0.1454
     20 O           4.1244   -2.5784    0.5652 O.3     1  UNL1       -0.3829
     21 H           2.5531   -0.4035   -5.0524 H       1  UNL1        0.2098
     22 H           4.6352   -0.7847   -3.3096 H       1  UNL1        0.0608
     23 H           5.0336   -1.2515   -4.9441 H       1  UNL1        0.0608
     24 H           3.5893   -2.7898   -6.2532 H       1  UNL1        0.0622
     25 H           2.9360   -5.1663   -6.0656 H       1  UNL1        0.0618
     26 H           2.5381   -6.1301   -3.8265 H       1  UNL1        0.0619
     27 H           2.5099   -4.7248   -1.8393 H       1  UNL1        0.0654
     28 H           1.7218   -3.2909   -0.7298 H       1  UNL1        0.1084
     29 H           1.5051    0.3980   -1.0526 H       1  UNL1        0.0647
     30 H          -0.9030    0.3880   -1.5039 H       1  UNL1        0.0584
     31 H          -0.5874    1.4978   -0.1572 H       1  UNL1        0.0584
     32 H          -1.1380   -1.0714    0.6173 H       1  UNL1        0.2095
     33 H           1.5177    1.0940    1.3212 H       1  UNL1        0.0647
     34 H           1.0667   -0.6503    2.8713 H       1  UNL1        0.2100
     35 H           3.5715   -0.0625    0.7473 H       1  UNL1        0.0648
     36 H           3.2658    0.1913    2.9515 H       1  UNL1        0.2100
     37 H           2.2672   -2.7203    1.3911 H       1  UNL1        0.0683
     38 H           4.5020   -2.2244   -0.2619 H       1  UNL1        0.2102
@<TRIPOS>BOND
     1     1     2    1
     2     2     3    1
     3     3     4   ar
     4     4     5   ar
     5     5     6   ar
     6     6     7   ar
     7     7     8   ar
     8     3     8   ar
     9     8     9    1
    10     9    10    1
    11    10    11    1
    12    11    12    1
    13    12    13    1
    14    13    14    1
    15    12    15    1
    16    15    16    1
    17    15    17    1
    18    17    18    1
    19    17    19    1
    20    10    19    1
    21    19    20    1
    22     1    21    1
    23     2    22    1
    24     2    23    1
    25     4    24    1
    26     5    25    1
    27     6    26    1
    28     7    27    1
    29    10    28    1
    30    12    29    1
    31    13    30    1
    32    13    31    1
    33    14    32    1
    34    15    33    1
    35    16    34    1
    36    17    35    1
    37    18    36    1
    38    19    37    1
    39    20    38    1
