@<TRIPOS>MOLECULE
*****
   33    35     1     0     0
SMALL
bcc


@<TRIPOS>ATOM
      1 N            1.0730     0.1570    -0.1030 nv         1 UNL      -0.949500
      2 C            2.4490     0.0340     0.0260 ca         1 UNL       0.734200
      3 N1           3.1590     1.1670     0.1560 nb         1 UNL      -0.788000
      4 C6           4.5020     1.0680     0.2410 ca         1 UNL       0.685900
      5 N2           5.2600    -0.0430     0.2010 nb         1 UNL      -0.771000
      6 C7           4.5080    -1.1540     0.0880 ca         1 UNL       0.481800
      7 C8           3.1190    -1.1920     0.0130 ca         1 UNL      -0.376400
      8 C9           2.7510    -2.5630    -0.0840 cc         1 UNL      -0.149200
      9 C10          3.9120    -3.3090    -0.0940 cd         1 UNL      -0.108100
     10 N3           4.9770    -2.4340    -0.0450 na         1 UNL      -0.182100
     11 C1*          6.3600    -2.8480    -0.2210 c3         1 UNL       0.218800
     12 O4*          7.1350    -2.5790     0.9670 os         1 UNL      -0.430600
     13 C4*          8.4980    -2.3220     0.5220 c3         1 UNL       0.061100
     14 C5*          9.4690    -3.1440     1.3670 c3         1 UNL       0.123400
     15 O5*          9.1610    -4.5330     1.2430 oh         1 UNL      -0.608800
     16 C3*          8.5460    -2.6310    -0.9920 c3         1 UNL       0.098100
     17 O3*          8.7680    -4.0070    -1.3220 oh         1 UNL      -0.582800
     18 C2*          7.1340    -2.2750    -1.4210 c3         1 UNL       0.099100
     19 O2*          7.0920    -0.8600    -1.6180 oh         1 UNL      -0.566800
     20 H            0.7510     1.0740     0.1810 hn         1 UNL       0.431800
     21 H6           0.5280    -0.6380     0.2020 hn         1 UNL       0.431800
     22 H7           5.0380     2.0090     0.3410 h5         1 UNL       0.050100
     23 H8           1.7470    -2.9600    -0.1550 ha         1 UNL       0.155000
     24 H9           4.0610    -4.3770    -0.1680 h4         1 UNL       0.172000
     25 H1*          6.3420    -3.9420    -0.3080 h2         1 UNL       0.091700
     26 H4*          8.6780    -1.2550     0.6900 h1         1 UNL       0.086700
     27 H5*1         9.3950    -2.8820     2.4250 h1         1 UNL       0.065700
     28 H5*2        10.4990    -2.9920     1.0350 h1         1 UNL       0.065700
     29 H5*          8.3520    -4.6750     1.7780 ho         1 UNL       0.413000
     30 H3*          9.3200    -2.0290    -1.4850 h1         1 UNL       0.109700
     31 H10          8.9500    -4.5080    -0.4960 ho         1 UNL       0.421000
     32 H2*          6.8240    -2.7570    -2.3530 h1         1 UNL       0.094700
     33 H11          6.5720    -0.4530    -0.8940 ho         1 UNL       0.422000
@<TRIPOS>BOND
     1     1     2 1   
     2     2     3 ar  
     3     3     4 ar  
     4     4     5 ar  
     5     5     6 ar  
     6     6     7 ar  
     7     2     7 ar  
     8     7     8 1   
     9     8     9 2   
    10     9    10 1   
    11     6    10 1   
    12    10    11 1   
    13    11    12 1   
    14    12    13 1   
    15    13    14 1   
    16    14    15 1   
    17    13    16 1   
    18    16    17 1   
    19    16    18 1   
    20    11    18 1   
    21    18    19 1   
    22     1    20 1   
    23     1    21 1   
    24     4    22 1   
    25     8    23 1   
    26     9    24 1   
    27    11    25 1   
    28    13    26 1   
    29    14    27 1   
    30    14    28 1   
    31    15    29 1   
    32    16    30 1   
    33    17    31 1   
    34    18    32 1   
    35    19    33 1   
@<TRIPOS>SUBSTRUCTURE
     1 UNL         1 TEMP              0 ****  ****    0 ROOT
