@<TRIPOS>MOLECULE
*****
 10 10 0 0 0
SMALL
GASTEIGER

@<TRIPOS>ATOM
      1 O           2.6691   -1.0761   -0.0044 O.2     1  UNL1       -0.2745
      2 C           1.6328   -0.4263    0.0053 C.2     1  UNL1        0.2282
      3 C           1.5646    1.0788    0.0377 C.3     1  UNL1        0.0768
      4 S          -0.2030    1.4893    0.0020 S.3     1  UNL1       -0.0931
      5 C          -0.6963   -0.1815   -0.0024 C.2     1  UNL1        0.1133
      6 S          -2.2534   -0.7417   -0.0042 S.2     1  UNL1       -0.0277
      7 N           0.3906   -0.9937   -0.0058 N.am    1  UNL1       -0.2736
      8 H           2.0681    1.4939   -0.8383 H       1  UNL1        0.0475
      9 H           2.0168    1.4489    0.9607 H       1  UNL1        0.0475
     10 H           0.2954   -1.9984   -0.0186 H       1  UNL1        0.1558
@<TRIPOS>BOND
     1     1     2    2
     2     2     3    1
     3     3     4    1
     4     4     5    1
     5     5     6    2
     6     5     7    1
     7     2     7   am
     8     3     8    1
     9     3     9    1
    10     7    10    1
