@<TRIPOS>MOLECULE
*****
 22 24 0 0 0
SMALL
GASTEIGER

@<TRIPOS>ATOM
      1 C           3.5079   -0.3180   -0.0018 C.ar    1  UNL1       -0.0430
      2 C           2.7845   -1.4916   -0.0024 C.ar    1  UNL1        0.0283
      3 N           1.4342   -1.5423   -0.0026 N.ar    1  UNL1       -0.2543
      4 C           0.7305   -0.3834   -0.0021 C.ar    1  UNL1        0.0801
      5 C           1.3997    0.8601   -0.0016 C.ar    1  UNL1        0.0011
      6 C           2.8012    0.8757   -0.0014 C.ar    1  UNL1       -0.0511
      7 C           0.6733    2.0546   -0.0012 C.ar    1  UNL1       -0.0505
      8 C          -0.7187    2.0233   -0.0013 C.ar    1  UNL1       -0.0351
      9 C          -1.4115    0.8274   -0.0015 C.ar    1  UNL1        0.0730
     10 N          -2.7556    0.8720   -0.0013 N.ar    1  UNL1       -0.2549
     11 C          -3.4311   -0.2973   -0.0011 C.ar    1  UNL1        0.0283
     12 C          -2.8220   -1.5347   -0.0011 C.ar    1  UNL1       -0.0429
     13 C          -1.4327   -1.5721   -0.0017 C.ar    1  UNL1       -0.0491
     14 C          -0.6809   -0.3811   -0.0018 C.ar    1  UNL1        0.0263
     15 H           4.5916   -0.3310   -0.0015 H       1  UNL1        0.0633
     16 H           3.2825   -2.4570   -0.0028 H       1  UNL1        0.0830
     17 H           3.3471    1.8161   -0.0009 H       1  UNL1        0.0625
     18 H           1.1792    3.0172   -0.0008 H       1  UNL1        0.0625
     19 H          -1.2779    2.9562   -0.0010 H       1  UNL1        0.0639
     20 H          -4.5135   -0.2055   -0.0008 H       1  UNL1        0.0830
     21 H          -3.4076   -2.4465   -0.0007 H       1  UNL1        0.0633
     22 H          -0.9259   -2.5355   -0.0018 H       1  UNL1        0.0625
@<TRIPOS>BOND
     1     1     2   ar
     2     2     3   ar
     3     3     4   ar
     4     4     5   ar
     5     5     6   ar
     6     1     6   ar
     7     5     7   ar
     8     7     8   ar
     9     8     9   ar
    10     9    10   ar
    11    10    11   ar
    12    11    12   ar
    13    12    13   ar
    14    13    14   ar
    15     9    14   ar
    16     4    14   ar
    17     1    15    1
    18     2    16    1
    19     6    17    1
    20     7    18    1
    21     8    19    1
    22    11    20    1
    23    12    21    1
    24    13    22    1
