@<TRIPOS>MOLECULE
*****
   22    24     1     0     0
SMALL
bcc


@<TRIPOS>ATOM
      1 C            3.5080    -0.3180    -0.0020 ca         1 UNL      -0.248300
      2 C1           2.7840    -1.4920    -0.0020 ca         1 UNL       0.412200
      3 N            1.4340    -1.5420    -0.0030 nb         1 UNL      -0.667000
      4 C2           0.7310    -0.3830    -0.0020 ca         1 UNL       0.424600
      5 C3           1.4000     0.8600    -0.0020 ca         1 UNL      -0.150300
      6 C4           2.8010     0.8760    -0.0010 ca         1 UNL      -0.078000
      7 C5           0.6730     2.0550    -0.0010 ca         1 UNL      -0.109000
      8 C6          -0.7190     2.0230    -0.0010 ca         1 UNL      -0.163300
      9 C7          -1.4110     0.8270    -0.0020 ca         1 UNL       0.408600
     10 N1          -2.7560     0.8720    -0.0010 nb         1 UNL      -0.664000
     11 C8          -3.4310    -0.2970    -0.0010 ca         1 UNL       0.414200
     12 C9          -2.8220    -1.5350    -0.0010 ca         1 UNL      -0.259300
     13 C10         -1.4330    -1.5720    -0.0020 ca         1 UNL      -0.055000
     14 C11         -0.6810    -0.3810    -0.0020 ca         1 UNL      -0.198600
     15 H            4.5920    -0.3310    -0.0020 ha         1 UNL       0.146000
     16 H1           3.2830    -2.4570    -0.0030 h4         1 UNL       0.023100
     17 H2           3.3470     1.8160    -0.0010 ha         1 UNL       0.141000
     18 H3           1.1790     3.0170    -0.0010 ha         1 UNL       0.138000
     19 H4          -1.2780     2.9560    -0.0010 ha         1 UNL       0.154000
     20 H5          -4.5130    -0.2050    -0.0010 h4         1 UNL       0.023100
     21 H6          -3.4080    -2.4460    -0.0010 ha         1 UNL       0.146000
     22 H7          -0.9260    -2.5350    -0.0020 ha         1 UNL       0.161000
@<TRIPOS>BOND
     1     1     2 ar  
     2     2     3 ar  
     3     3     4 ar  
     4     4     5 ar  
     5     5     6 ar  
     6     1     6 ar  
     7     5     7 ar  
     8     7     8 ar  
     9     8     9 ar  
    10     9    10 ar  
    11    10    11 ar  
    12    11    12 ar  
    13    12    13 ar  
    14    13    14 ar  
    15     9    14 ar  
    16     4    14 ar  
    17     1    15 1   
    18     2    16 1   
    19     6    17 1   
    20     7    18 1   
    21     8    19 1   
    22    11    20 1   
    23    12    21 1   
    24    13    22 1   
@<TRIPOS>SUBSTRUCTURE
     1 UNL         1 TEMP              0 ****  ****    0 ROOT
