@<TRIPOS>MOLECULE
*****
   27    28     1     0     0
SMALL
bcc


@<TRIPOS>ATOM
      1 O            1.1820     0.2440    -0.4850 o          1 UNL      -0.541000
      2 C            2.3140     0.1010    -0.0340 c          1 UNL       0.701000
      3 C1           3.0530     1.1420     0.7700 c3         1 UNL      -0.125200
      4 C2           2.7170     2.5590     0.3110 c3         1 UNL      -0.043200
      5 C3           3.8190     3.3050    -0.3570 c2         1 UNL      -0.170700
      6 C4           5.0830     2.8780    -0.4250 c2         1 UNL      -0.170700
      7 C5           5.5730     1.5930     0.1570 c3         1 UNL      -0.043200
      8 C6           4.5080     0.6630     0.7400 c3         1 UNL      -0.125200
      9 C7           4.4370    -0.6780     0.0260 c          1 UNL       0.701000
     10 O1           5.4120    -1.3260    -0.3190 o          1 UNL      -0.541000
     11 N            3.1120    -1.0040    -0.1390 n          1 UNL      -0.444700
     12 S            2.5880    -2.4530    -0.8680 ss         1 UNL       0.076600
     13 C8           1.6870    -3.3020     0.5340 c3         1 UNL       0.137900
     14 Cl           2.7800    -3.3970     1.9700 cl         1 UNL      -0.099400
     15 Cl1          0.2660    -2.2890     1.0200 cl         1 UNL      -0.099400
     16 C9           1.1770    -4.7070     0.0920 c3         1 UNL       0.134100
     17 Cl2          2.4890    -5.8470    -0.3750 cl         1 UNL      -0.111900
     18 Cl3          0.1810    -5.5470     1.3440 cl         1 UNL      -0.111900
     19 H            2.6750     1.0240     1.7960 hc         1 UNL       0.093200
     20 H1           2.4140     3.1440     1.1890 hc         1 UNL       0.071450
     21 H2           1.8520     2.5690    -0.3610 hc         1 UNL       0.071450
     22 H3           3.5610     4.2700    -0.7890 ha         1 UNL       0.139000
     23 H4           5.8250     3.5130    -0.9070 ha         1 UNL       0.139000
     24 H5           6.2690     1.8620     0.9640 hc         1 UNL       0.071450
     25 H6           6.1810     1.0870    -0.6020 hc         1 UNL       0.071450
     26 H7           4.8110     0.4170     1.7670 hc         1 UNL       0.093200
     27 H8           0.5250    -4.6160    -0.7830 h2         1 UNL       0.127700
@<TRIPOS>BOND
     1     1     2 2   
     2     2     3 1   
     3     3     4 1   
     4     4     5 1   
     5     5     6 2   
     6     6     7 1   
     7     7     8 1   
     8     3     8 1   
     9     8     9 1   
    10     9    10 2   
    11     9    11 1   
    12     2    11 1   
    13    11    12 1   
    14    12    13 1   
    15    13    14 1   
    16    13    15 1   
    17    13    16 1   
    18    16    17 1   
    19    16    18 1   
    20     3    19 1   
    21     4    20 1   
    22     4    21 1   
    23     5    22 1   
    24     6    23 1   
    25     7    24 1   
    26     7    25 1   
    27     8    26 1   
    28    16    27 1   
@<TRIPOS>SUBSTRUCTURE
     1 UNL         1 TEMP              0 ****  ****    0 ROOT
