@<TRIPOS>MOLECULE
*****
   38    41     1     0     0
SMALL
bcc


@<TRIPOS>ATOM
      1 O            2.2170     1.3220    -0.1200 o          1 UNL      -0.559500
      2 C            1.4800     0.3600    -0.0860 c          1 UNL       0.736200
      3 O1           1.8530    -0.9520    -0.0510 os         1 UNL      -0.418900
      4 C1           0.7150    -1.8680    -0.0320 c3         1 UNL       0.312700
      5 C2           0.8030    -2.6710    -1.3480 ca         1 UNL      -0.131800
      6 C3           1.9420    -3.4620    -1.6080 ca         1 UNL      -0.069750
      7 C4           1.9830    -4.3370    -2.6990 ca         1 UNL      -0.188750
      8 C5           0.8920    -4.4140    -3.5560 ca         1 UNL       0.134100
      9 O2           0.8560    -5.2940    -4.5950 oh         1 UNL      -0.496100
     10 C6          -0.2100    -3.5970    -3.3700 ca         1 UNL      -0.188750
     11 C7          -0.2510    -2.7250    -2.2810 ca         1 UNL      -0.069750
     12 C8           0.7950    -2.7560     1.2290 ca         1 UNL      -0.131800
     13 C9           1.3540    -2.2730     2.4290 ca         1 UNL      -0.069750
     14 C10          1.3880    -3.0660     3.5830 ca         1 UNL      -0.188750
     15 C11          0.8670    -4.3530     3.5470 ca         1 UNL       0.134100
     16 O3           0.8830    -5.1620     4.6440 oh         1 UNL      -0.496100
     17 C12          0.3050    -4.8560     2.3840 ca         1 UNL      -0.188750
     18 C13          0.2550    -4.0590     1.2380 ca         1 UNL      -0.069750
     19 C14         -0.4390    -0.9140     0.0560 ca         1 UNL      -0.075300
     20 C15         -1.8020    -1.1590     0.1720 ca         1 UNL      -0.112000
     21 C16         -2.6820    -0.0730     0.1490 ca         1 UNL      -0.098000
     22 C17         -2.1920     1.2390     0.0490 ca         1 UNL      -0.140000
     23 C18         -0.8200     1.4780    -0.0240 ca         1 UNL      -0.049000
     24 C19          0.0260     0.3830    -0.0220 ca         1 UNL      -0.168600
     25 H            2.7960    -3.4260    -0.9310 ha         1 UNL       0.146250
     26 H1           2.8610    -4.9570    -2.8500 ha         1 UNL       0.145250
     27 H2           1.6510    -5.8510    -4.5570 ho         1 UNL       0.421500
     28 H3          -1.0510    -3.6490    -4.0570 ha         1 UNL       0.145250
     29 H4          -1.1410    -2.1120    -2.1770 ha         1 UNL       0.146250
     30 H5           1.7680    -1.2670     2.4820 ha         1 UNL       0.146250
     31 H6           1.8230    -2.6610     4.4920 ha         1 UNL       0.145250
     32 H7           1.2930    -4.6790     5.3800 ho         1 UNL       0.421500
     33 H8          -0.0980    -5.8640     2.3660 ha         1 UNL       0.145250
     34 H9          -0.2050    -4.4800     0.3460 ha         1 UNL       0.146250
     35 H10         -2.1860    -2.1740     0.2440 ha         1 UNL       0.146000
     36 H11         -3.7550    -0.2480     0.2010 ha         1 UNL       0.140000
     37 H12         -2.8920     2.0720     0.0310 ha         1 UNL       0.143000
     38 H13         -0.4250     2.4880    -0.0860 ha         1 UNL       0.156000
@<TRIPOS>BOND
     1     1     2 2   
     2     2     3 1   
     3     3     4 1   
     4     4     5 1   
     5     5     6 ar  
     6     6     7 ar  
     7     7     8 ar  
     8     8     9 1   
     9     8    10 ar  
    10    10    11 ar  
    11     5    11 ar  
    12     4    12 1   
    13    12    13 ar  
    14    13    14 ar  
    15    14    15 ar  
    16    15    16 1   
    17    15    17 ar  
    18    17    18 ar  
    19    12    18 ar  
    20     4    19 1   
    21    19    20 ar  
    22    20    21 ar  
    23    21    22 ar  
    24    22    23 ar  
    25    23    24 ar  
    26    19    24 ar  
    27     2    24 1   
    28     6    25 1   
    29     7    26 1   
    30     9    27 1   
    31    10    28 1   
    32    11    29 1   
    33    13    30 1   
    34    14    31 1   
    35    16    32 1   
    36    17    33 1   
    37    18    34 1   
    38    20    35 1   
    39    21    36 1   
    40    22    37 1   
    41    23    38 1   
@<TRIPOS>SUBSTRUCTURE
     1 UNL         1 TEMP              0 ****  ****    0 ROOT
