@<TRIPOS>MOLECULE
*****
   39    41     1     0     0
SMALL
bcc


@<TRIPOS>ATOM
      1 C            1.3390     0.1380     0.9950 c3         1 UNL      -0.093100
      2 C1           2.7700     0.0010     0.4930 c3         1 UNL      -0.080400
      3 C2           3.1870     1.2090    -0.3500 c3         1 UNL      -0.082400
      4 C3           4.6280     1.0820    -0.8640 c3         1 UNL       0.119100
      5 C4           5.0790     2.2970    -1.6350 c3         1 UNL       0.105400
      6 O            4.7460     2.0190    -2.9900 os         1 UNL      -0.445600
      7 C5           4.7310     0.5750    -3.1280 c3         1 UNL       0.383900
      8 C6           3.3900     0.2270    -3.8120 c3         1 UNL       0.055300
      9 N            3.2790     0.6870    -5.1780 na         1 UNL      -0.058400
     10 C7           3.1400     1.9720    -5.6140 cc         1 UNL       0.416400
     11 N1           2.9290     1.9730    -6.9100 nd         1 UNL      -0.690000
     12 C8           2.9250     0.6430    -7.2200 cd         1 UNL       0.499900
     13 N2           3.1370    -0.1830    -6.1930 nc         1 UNL      -0.513800
     14 C9           5.9720     0.0750    -3.8830 ca         1 UNL      -0.120300
     15 C10          6.9220     1.0030    -4.3680 ca         1 UNL      -0.087000
     16 C11          8.0440     0.5980    -5.1000 ca         1 UNL      -0.130000
     17 C12          8.2400    -0.7500    -5.3740 ca         1 UNL       0.036400
     18 Cl           9.6060    -1.2490    -6.2920 cl         1 UNL      -0.080400
     19 C13          7.3370    -1.6930    -4.9010 ca         1 UNL      -0.130000
     20 C14          6.2230    -1.2900    -4.1500 ca         1 UNL       0.060400
     21 Cl1          5.2140    -2.5660    -3.5630 cl         1 UNL      -0.071400
     22 O1           4.7460     0.0080    -1.7990 os         1 UNL      -0.420600
     23 H            1.1440    -0.5900     1.7890 hc         1 UNL       0.035033
     24 H1           0.6250    -0.0450     0.1860 hc         1 UNL       0.035033
     25 H2           1.1500     1.1380     1.3990 hc         1 UNL       0.035033
     26 H3           2.8600    -0.9240    -0.0860 hc         1 UNL       0.049700
     27 H4           3.4420    -0.0870     1.3550 hc         1 UNL       0.049700
     28 H5           3.1040     2.1150     0.2630 hc         1 UNL       0.052700
     29 H6           2.4840     1.3190    -1.1820 hc         1 UNL       0.052700
     30 H7           5.2950     0.8980    -0.0150 h1         1 UNL       0.071700
     31 H8           6.1640     2.4290    -1.5710 h1         1 UNL       0.065200
     32 H9           4.6000     3.2290    -1.3180 h1         1 UNL       0.065200
     33 H10          2.5610     0.7010    -3.2750 h1         1 UNL       0.093700
     34 H11          3.1720    -0.8430    -3.7930 h1         1 UNL       0.093700
     35 H12          3.2010     2.8370    -4.9710 h5         1 UNL       0.080100
     36 H13          2.7510     0.2670    -8.2200 h5         1 UNL       0.071100
     37 H14          6.8000     2.0710    -4.1890 ha         1 UNL       0.158000
     38 H15          8.7540     1.3400    -5.4570 ha         1 UNL       0.154000
     39 H16          7.4990    -2.7480    -5.1160 ha         1 UNL       0.164000
@<TRIPOS>BOND
     1     1     2 1   
     2     2     3 1   
     3     3     4 1   
     4     4     5 1   
     5     5     6 1   
     6     6     7 1   
     7     7     8 1   
     8     8     9 1   
     9     9    10 1   
    10    10    11 2   
    11    11    12 1   
    12    12    13 2   
    13     9    13 1   
    14     7    14 1   
    15    14    15 ar  
    16    15    16 ar  
    17    16    17 ar  
    18    17    18 1   
    19    17    19 ar  
    20    19    20 ar  
    21    14    20 ar  
    22    20    21 1   
    23     7    22 1   
    24     4    22 1   
    25     1    23 1   
    26     1    24 1   
    27     1    25 1   
    28     2    26 1   
    29     2    27 1   
    30     3    28 1   
    31     3    29 1   
    32     4    30 1   
    33     5    31 1   
    34     5    32 1   
    35     8    33 1   
    36     8    34 1   
    37    10    35 1   
    38    12    36 1   
    39    15    37 1   
    40    16    38 1   
    41    19    39 1   
@<TRIPOS>SUBSTRUCTURE
     1 UNL         1 TEMP              0 ****  ****    0 ROOT
