@<TRIPOS>MOLECULE
*****
   36    38     1     0     0
SMALL
bcc


@<TRIPOS>ATOM
      1 C            1.7770    -0.6850     1.9800 c3         1 UNL       0.191100
      2 N            1.6580    -0.8830     0.5120 nh         1 UNL      -0.658300
      3 C1           0.8160    -1.9870     0.1030 ce         1 UNL      -0.062200
      4 C2           1.4460    -3.3400    -0.0560 c          1 UNL       0.693300
      5 O            0.7450    -4.3350    -0.2290 o          1 UNL      -0.622100
      6 N1           2.8100    -3.3150     0.0900 ns         1 UNL      -0.525400
      7 C3           3.6230    -4.4410     0.1380 ca         1 UNL       0.518200
      8 C4           3.4200    -5.5400    -0.6870 ca         1 UNL      -0.252300
      9 C5           4.2700    -6.6350    -0.5570 ca         1 UNL      -0.075000
     10 C6           5.2590    -6.6140     0.4180 ca         1 UNL      -0.269300
     11 C7           5.3940    -5.4690     1.1850 ca         1 UNL       0.423200
     12 N2           4.6250    -4.3670     1.0360 nb         1 UNL      -0.709000
     13 C8          -0.5120    -1.7990    -0.0560 cf         1 UNL       0.167900
     14 O1          -1.4000    -2.8360    -0.2960 oh         1 UNL      -0.489100
     15 C9          -1.1620    -0.4660     0.0220 ca         1 UNL       0.038200
     16 C10         -2.5470    -0.3270     0.1900 ca         1 UNL      -0.108000
     17 C11         -3.1400     0.9340     0.2800 ca         1 UNL      -0.076000
     18 C12         -2.3570     2.0870     0.2120 ca         1 UNL      -0.136000
     19 C13         -0.9820     1.9780     0.0170 ca         1 UNL      -0.021000
     20 C14         -0.4130     0.7090    -0.0970 ca         1 UNL      -0.352500
     21 S            1.3180     0.5380    -0.3730 sy         1 UNL       1.512200
     22 O2           1.9850     1.6420     0.2840 o          1 UNL      -0.640300
     23 O3           1.5050     0.2630    -1.7800 o          1 UNL      -0.640300
     24 H            1.9880    -1.6400     2.4730 h1         1 UNL       0.059033
     25 H1           0.8600    -0.2720     2.4090 h1         1 UNL       0.059033
     26 H2           2.6190    -0.0220     2.2000 h1         1 UNL       0.059033
     27 H3           3.2230    -2.4810     0.4850 hn         1 UNL       0.348500
     28 H4           2.6460    -5.5410    -1.4470 ha         1 UNL       0.178000
     29 H5           4.1550    -7.4980    -1.2060 ha         1 UNL       0.142000
     30 H6           5.9120    -7.4650     0.5740 ha         1 UNL       0.147000
     31 H7           6.1400    -5.4070     1.9710 h4         1 UNL       0.025100
     32 H8          -0.9040    -3.6870    -0.2790 ho         1 UNL       0.463000
     33 H9          -3.1870    -1.2110     0.2370 ha         1 UNL       0.162000
     34 H10         -4.2180     1.0190     0.4030 ha         1 UNL       0.144000
     35 H11         -2.8210     3.0680     0.2940 ha         1 UNL       0.147000
     36 H12         -0.3700     2.8750    -0.0560 ha         1 UNL       0.157000
@<TRIPOS>BOND
     1     1     2 1   
     2     2     3 1   
     3     3     4 1   
     4     4     5 2   
     5     4     6 1   
     6     6     7 1   
     7     7     8 ar  
     8     8     9 ar  
     9     9    10 ar  
    10    10    11 ar  
    11    11    12 ar  
    12     7    12 ar  
    13     3    13 2   
    14    13    14 1   
    15    13    15 1   
    16    15    16 ar  
    17    16    17 ar  
    18    17    18 ar  
    19    18    19 ar  
    20    19    20 ar  
    21    15    20 ar  
    22    20    21 1   
    23     2    21 1   
    24    21    22 2   
    25    21    23 2   
    26     1    24 1   
    27     1    25 1   
    28     1    26 1   
    29     6    27 1   
    30     8    28 1   
    31     9    29 1   
    32    10    30 1   
    33    11    31 1   
    34    14    32 1   
    35    16    33 1   
    36    17    34 1   
    37    18    35 1   
    38    19    36 1   
@<TRIPOS>SUBSTRUCTURE
     1 UNL         1 TEMP              0 ****  ****    0 ROOT
