@<TRIPOS>MOLECULE
*****
 26 27 0 0 0
SMALL
GASTEIGER

@<TRIPOS>ATOM
      1 C           2.2346   -0.0669    0.2127 C.3     1  UNL1       -0.0056
      2 C           0.7655   -0.2067    0.1118 C.ar    1  UNL1        0.1139
      3 O           0.0939    0.9843    0.1213 O.2     1  UNL1       -0.4673
      4 C          -1.2257    0.7147   -0.0024 C.ar    1  UNL1        0.0928
      5 C          -1.4217   -0.6382   -0.0845 C.ar    1  UNL1       -0.0115
      6 C          -0.1301   -1.2619   -0.0081 C.ar    1  UNL1        0.0775
      7 C           0.0683   -2.7093   -0.0858 C.2     1  UNL1        0.2516
      8 O          -0.9025   -3.4242   -0.3194 O.2     1  UNL1       -0.2697
      9 N           1.3466   -3.1820    0.1564 N.am    1  UNL1       -0.2814
     10 C           1.7525   -4.5389    0.1226 C.ar    1  UNL1        0.0337
     11 C           0.9772   -5.5632   -0.4280 C.ar    1  UNL1       -0.0405
     12 C           1.4108   -6.8914   -0.3883 C.ar    1  UNL1       -0.0600
     13 C           2.6320   -7.2097    0.1964 C.ar    1  UNL1       -0.0616
     14 C           3.4297   -6.1945    0.7210 C.ar    1  UNL1       -0.0600
     15 C           2.9972   -4.8646    0.6750 C.ar    1  UNL1       -0.0405
     16 H           2.5328    0.9874    0.2063 H       1  UNL1        0.0308
     17 H           2.7295   -0.5566   -0.6309 H       1  UNL1        0.0308
     18 H           2.6006   -0.5055    1.1455 H       1  UNL1        0.0308
     19 H          -1.8864    1.5693   -0.0194 H       1  UNL1        0.1029
     20 H          -2.3707   -1.1449   -0.1915 H       1  UNL1        0.0657
     21 H           2.0283   -2.5280    0.5038 H       1  UNL1        0.1551
     22 H           0.0242   -5.3659   -0.9092 H       1  UNL1        0.0636
     23 H           0.7848   -7.6732   -0.8114 H       1  UNL1        0.0618
     24 H           2.9589   -8.2454    0.2404 H       1  UNL1        0.0618
     25 H           4.3851   -6.4431    1.1762 H       1  UNL1        0.0618
     26 H           3.6381   -4.0987    1.1032 H       1  UNL1        0.0636
@<TRIPOS>BOND
     1     1     2    1
     2     2     3   ar
     3     3     4   ar
     4     4     5   ar
     5     5     6   ar
     6     2     6   ar
     7     6     7    1
     8     7     8    2
     9     7     9   am
    10     9    10    1
    11    10    11   ar
    12    11    12   ar
    13    12    13   ar
    14    13    14   ar
    15    14    15   ar
    16    10    15   ar
    17     1    16    1
    18     1    17    1
    19     1    18    1
    20     4    19    1
    21     5    20    1
    22     9    21    1
    23    11    22    1
    24    12    23    1
    25    13    24    1
    26    14    25    1
    27    15    26    1
