@<TRIPOS>MOLECULE
*****
 31 32 0 0 0
SMALL
GASTEIGER

@<TRIPOS>ATOM
      1 O           2.7043    0.7844   -0.6644 O.2     1  UNL1       -0.2738
      2 C           2.2029   -0.0095    0.1265 C.2     1  UNL1        0.2333
      3 C           0.7021   -0.1410    0.2791 C.3     1  UNL1        0.1065
      4 N           0.1748    0.8138    1.2369 N.ar    1  UNL1       -0.2632
      5 C          -0.3059    2.0561    0.8828 C.ar    1  UNL1        0.0309
      6 C          -0.7183    2.6426    2.0565 C.ar    1  UNL1        0.0522
      7 N          -0.5191    1.7997    3.1147 N.ar    1  UNL1       -0.1715
      8 C           0.0201    0.7100    2.5973 C.ar    1  UNL1        0.4507
      9 N           0.3919   -0.4246    3.4049 N.pl3   1  UNL1        0.1195
     10 O           0.9394   -1.3798    2.8346 O.2     1  UNL1        0.0446
     11 O           0.1519   -0.3695    4.6170 O.co2   1  UNL1       -0.5735
     12 N           2.9396   -0.8253    0.9525 N.am    1  UNL1       -0.3097
     13 C           4.3830   -0.8208    0.9725 C.3     1  UNL1        0.0369
     14 C           4.9272   -2.1971    0.6987 C.ar    1  UNL1       -0.0303
     15 C           5.1794   -2.6069   -0.6184 C.ar    1  UNL1       -0.0571
     16 C           5.7236   -3.8659   -0.8764 C.ar    1  UNL1       -0.0615
     17 C           6.0071   -4.7328    0.1775 C.ar    1  UNL1       -0.0617
     18 C           5.7271   -4.3500    1.4880 C.ar    1  UNL1       -0.0615
     19 C           5.1827   -3.0911    1.7485 C.ar    1  UNL1       -0.0571
     20 H           0.3977   -1.1539    0.5511 H       1  UNL1        0.0590
     21 H           0.2374    0.0633   -0.6941 H       1  UNL1        0.0590
     22 H          -0.3016    2.4113   -0.1392 H       1  UNL1        0.0827
     23 H          -1.1459    3.6290    2.1915 H       1  UNL1        0.0847
     24 H           2.4675   -1.4329    1.6184 H       1  UNL1        0.1491
     25 H           4.6942   -0.4843    1.9683 H       1  UNL1        0.0512
     26 H           4.7891   -0.1011    0.2535 H       1  UNL1        0.0512
     27 H           4.9647   -1.9375   -1.4495 H       1  UNL1        0.0621
     28 H           5.9347   -4.1669   -1.8993 H       1  UNL1        0.0618
     29 H           6.4458   -5.7068   -0.0228 H       1  UNL1        0.0618
     30 H           5.9414   -5.0297    2.3088 H       1  UNL1        0.0618
     31 H           4.9730   -2.8078    2.7777 H       1  UNL1        0.0621
@<TRIPOS>UNITY_ATOM_ATTR
9 1
charge 1
11 1
charge -1
@<TRIPOS>BOND
     1     1     2    2
     2     2     3    1
     3     3     4    1
     4     4     5   ar
     5     5     6   ar
     6     6     7   ar
     7     7     8   ar
     8     4     8   ar
     9     8     9    1
    10     9    10    2
    11     9    11    1
    12     2    12   am
    13    12    13    1
    14    13    14    1
    15    14    15   ar
    16    15    16   ar
    17    16    17   ar
    18    17    18   ar
    19    18    19   ar
    20    14    19   ar
    21     3    20    1
    22     3    21    1
    23     5    22    1
    24     6    23    1
    25    12    24    1
    26    13    25    1
    27    13    26    1
    28    15    27    1
    29    16    28    1
    30    17    29    1
    31    18    30    1
    32    19    31    1
