@<TRIPOS>MOLECULE
*****
 34 35 0 0 0
SMALL
GASTEIGER

@<TRIPOS>ATOM
      1 C           1.3410   -0.7967   -0.3353 C.3     1  UNL1       -0.0306
      2 C           2.4105   -0.3919   -1.3350 C.3     1  UNL1        0.0900
      3 O           3.2989   -1.5001   -1.5056 O.3     1  UNL1       -0.4604
      4 C           4.3099   -1.6063   -0.5948 C.2     1  UNL1        0.3574
      5 O           4.6707   -0.7167    0.1578 O.2     1  UNL1       -0.2432
      6 C           4.7829   -2.9684   -0.5885 C.ar    1  UNL1        0.1468
      7 C           4.3084   -4.0360   -1.3355 C.ar    1  UNL1        0.0598
      8 N           4.9729   -5.1927   -1.0478 N.ar    1  UNL1       -0.2432
      9 C           5.8475   -4.8571   -0.1317 C.ar    1  UNL1        0.0970
     10 N           5.7641   -3.5299    0.2094 N.ar    1  UNL1       -0.3178
     11 C           6.5172   -2.8838    1.2934 C.3     1  UNL1        0.0582
     12 C           6.8766   -3.8421    2.4391 C.3     1  UNL1       -0.0400
     13 C           7.7402   -2.1479    0.7662 C.ar    1  UNL1       -0.0249
     14 C           7.9001   -0.7798    1.0587 C.ar    1  UNL1       -0.0566
     15 C           8.9951   -0.0614    0.5719 C.ar    1  UNL1       -0.0614
     16 C           9.9548   -0.7001   -0.2074 C.ar    1  UNL1       -0.0617
     17 C           9.8324   -2.0603   -0.4792 C.ar    1  UNL1       -0.0614
     18 C           8.7390   -2.7826    0.0110 C.ar    1  UNL1       -0.0566
     19 H           0.6401    0.0195   -0.1519 H       1  UNL1        0.0262
     20 H           1.7910   -1.1001    0.6165 H       1  UNL1        0.0262
     21 H           0.7841   -1.6654   -0.7066 H       1  UNL1        0.0262
     22 H           2.9400    0.5131   -1.0223 H       1  UNL1        0.0695
     23 H           1.9504   -0.1859   -2.3074 H       1  UNL1        0.0695
     24 H           3.5032   -4.0222   -2.0577 H       1  UNL1        0.0853
     25 H           6.5466   -5.5454    0.3213 H       1  UNL1        0.1029
     26 H           5.8238   -2.1568    1.7299 H       1  UNL1        0.0575
     27 H           7.5207   -4.6657    2.1132 H       1  UNL1        0.0253
     28 H           5.9658   -4.2818    2.8664 H       1  UNL1        0.0253
     29 H           7.4053   -3.3188    3.2418 H       1  UNL1        0.0253
     30 H           7.1577   -0.2539    1.6573 H       1  UNL1        0.0621
     31 H           9.0894    0.9985    0.7927 H       1  UNL1        0.0618
     32 H          10.7959   -0.1369   -0.6034 H       1  UNL1        0.0618
     33 H          10.5858   -2.5598   -1.0827 H       1  UNL1        0.0618
     34 H           8.6737   -3.8430   -0.2210 H       1  UNL1        0.0621
@<TRIPOS>BOND
     1     1     2    1
     2     2     3    1
     3     3     4    1
     4     4     5    2
     5     4     6    1
     6     6     7   ar
     7     7     8   ar
     8     8     9   ar
     9     9    10   ar
    10     6    10   ar
    11    10    11    1
    12    11    12    1
    13    11    13    1
    14    13    14   ar
    15    14    15   ar
    16    15    16   ar
    17    16    17   ar
    18    17    18   ar
    19    13    18   ar
    20     1    19    1
    21     1    20    1
    22     1    21    1
    23     2    22    1
    24     2    23    1
    25     7    24    1
    26     9    25    1
    27    11    26    1
    28    12    27    1
    29    12    28    1
    30    12    29    1
    31    14    30    1
    32    15    31    1
    33    16    32    1
    34    17    33    1
    35    18    34    1
