@<TRIPOS>MOLECULE
*****
 36 39 0 0 0
SMALL
GASTEIGER

@<TRIPOS>ATOM
      1 C           0.9490   -0.1038   -0.0082 C.3     1  UNL1       -0.0386
      2 C           2.4706   -0.0113   -0.0078 C.ar    1  UNL1       -0.0350
      3 C           3.1138    1.2613   -0.0097 C.ar    1  UNL1       -0.0141
      4 C           2.4069    2.4993   -0.0130 C.ar    1  UNL1       -0.0538
      5 C           3.0383    3.7417   -0.0144 C.ar    1  UNL1       -0.0612
      6 C           4.4110    3.7922   -0.0120 C.ar    1  UNL1       -0.0612
      7 C           5.1302    2.5989   -0.0093 C.ar    1  UNL1       -0.0538
      8 C           4.5246    1.3073   -0.0085 C.ar    1  UNL1       -0.0141
      9 C           5.2749    0.0732   -0.0079 C.ar    1  UNL1       -0.0344
     10 C           6.7876    0.1687   -0.0086 C.3     1  UNL1       -0.0385
     11 C           4.6518   -1.2472   -0.0075 C.ar    1  UNL1       -0.0064
     12 C           3.2242   -1.2356   -0.0079 C.ar    1  UNL1       -0.0135
     13 C           2.5394   -2.4690   -0.0062 C.ar    1  UNL1       -0.0532
     14 C           3.1777   -3.6990   -0.0071 C.ar    1  UNL1       -0.0534
     15 C           4.5563   -3.7736   -0.0074 C.ar    1  UNL1       -0.0173
     16 C           5.1314   -5.0615   -0.0079 C.ar    1  UNL1       -0.0540
     17 C           6.5062   -5.2409   -0.0080 C.ar    1  UNL1       -0.0612
     18 C           7.3140   -4.1266   -0.0077 C.ar    1  UNL1       -0.0611
     19 C           6.7381   -2.8489   -0.0071 C.ar    1  UNL1       -0.0534
     20 C           5.3325   -2.5837   -0.0073 C.ar    1  UNL1       -0.0099
     21 H           0.4209    0.8492   -0.0046 H       1  UNL1        0.0278
     22 H           0.6058   -0.6312    0.8889 H       1  UNL1        0.0278
     23 H           0.6051   -0.6268   -0.9072 H       1  UNL1        0.0278
     24 H           1.3227    2.5374   -0.0156 H       1  UNL1        0.0624
     25 H           2.4542    4.6574   -0.0167 H       1  UNL1        0.0618
     26 H           4.9339    4.7438   -0.0126 H       1  UNL1        0.0618
     27 H           6.2062    2.7301   -0.0071 H       1  UNL1        0.0624
     28 H           7.2136    1.1683   -0.0096 H       1  UNL1        0.0278
     29 H           7.1798   -0.2875   -0.9223 H       1  UNL1        0.0278
     30 H           7.1808   -0.2864    0.9052 H       1  UNL1        0.0278
     31 H           1.4528   -2.5132   -0.0088 H       1  UNL1        0.0624
     32 H           2.5668   -4.5985   -0.0084 H       1  UNL1        0.0624
     33 H           4.5006   -5.9481   -0.0085 H       1  UNL1        0.0624
     34 H           6.9380   -6.2366   -0.0083 H       1  UNL1        0.0618
     35 H           8.3963   -4.2294   -0.0078 H       1  UNL1        0.0618
     36 H           7.4725   -2.0602   -0.0074 H       1  UNL1        0.0624
@<TRIPOS>BOND
     1     1     2    1
     2     2     3   ar
     3     3     4   ar
     4     4     5   ar
     5     5     6   ar
     6     6     7   ar
     7     7     8   ar
     8     3     8   ar
     9     8     9   ar
    10     9    10    1
    11     9    11   ar
    12    11    12   ar
    13     2    12   ar
    14    12    13   ar
    15    13    14   ar
    16    14    15   ar
    17    15    16   ar
    18    16    17   ar
    19    17    18   ar
    20    18    19   ar
    21    19    20   ar
    22    15    20   ar
    23    11    20   ar
    24     1    21    1
    25     1    22    1
    26     1    23    1
    27     4    24    1
    28     5    25    1
    29     6    26    1
    30     7    27    1
    31    10    28    1
    32    10    29    1
    33    10    30    1
    34    13    31    1
    35    14    32    1
    36    16    33    1
    37    17    34    1
    38    18    35    1
    39    19    36    1
