@<TRIPOS>MOLECULE
*****
 36 38 0 0 0
SMALL
GASTEIGER

@<TRIPOS>ATOM
      1 C           1.7769   -0.6847    1.9798 C.3     1  UNL1        0.0239
      2 N           1.6580   -0.8831    0.5122 N.pl3   1  UNL1       -0.1975
      3 C           0.8155   -1.9866    0.1030 C.2     1  UNL1        0.1547
      4 C           1.4464   -3.3403   -0.0555 C.2     1  UNL1        0.2685
      5 O           0.7453   -4.3350   -0.2292 O.2     1  UNL1       -0.2683
      6 N           2.8100   -3.3150    0.0897 N.am    1  UNL1       -0.2652
      7 C           3.6226   -4.4405    0.1384 C.ar    1  UNL1        0.1251
      8 C           3.4203   -5.5404   -0.6872 C.ar    1  UNL1       -0.0215
      9 C           4.2701   -6.6354   -0.5569 C.ar    1  UNL1       -0.0571
     10 C           5.2593   -6.6136    0.4179 C.ar    1  UNL1       -0.0435
     11 C           5.3936   -5.4689    1.1847 C.ar    1  UNL1        0.0297
     12 N           4.6247   -4.3673    1.0362 N.ar    1  UNL1       -0.2401
     13 C          -0.5117   -1.7986   -0.0555 C.2     1  UNL1        0.1534
     14 O          -1.4001   -2.8362   -0.2958 O.2     1  UNL1       -0.5040
     15 C          -1.1616   -0.4661    0.0221 C.ar    1  UNL1        0.0451
     16 C          -2.5467   -0.3266    0.1899 C.ar    1  UNL1       -0.0491
     17 C          -3.1402    0.9341    0.2800 C.ar    1  UNL1       -0.0610
     18 C          -2.3567    2.0873    0.2121 C.ar    1  UNL1       -0.0599
     19 C          -0.9824    1.9779    0.0168 C.ar    1  UNL1       -0.0344
     20 C          -0.4128    0.7091   -0.0973 C.ar    1  UNL1        0.1194
     21 S           1.3182    0.5380   -0.3733 S.O2    1  UNL1        0.0754
     22 O           1.9853    1.6423    0.2844 O.2     1  UNL1       -0.1498
     23 O           1.5053    0.2630   -1.7799 O.2     1  UNL1       -0.1498
     24 H           1.9876   -1.6397    2.4730 H       1  UNL1        0.0446
     25 H           0.8599   -0.2716    2.4087 H       1  UNL1        0.0446
     26 H           2.6190   -0.0217    2.1996 H       1  UNL1        0.0446
     27 H           3.2229   -2.4806    0.4852 H       1  UNL1        0.1566
     28 H           2.6458   -5.5409   -1.4469 H       1  UNL1        0.0652
     29 H           4.1547   -7.4984   -1.2063 H       1  UNL1        0.0619
     30 H           5.9120   -7.4651    0.5740 H       1  UNL1        0.0633
     31 H           6.1402   -5.4073    1.9711 H       1  UNL1        0.0830
     32 H          -0.9039   -3.6866   -0.2793 H       1  UNL1        0.2923
     33 H          -3.1874   -1.2109    0.2372 H       1  UNL1        0.0625
     34 H          -4.2175    1.0187    0.4030 H       1  UNL1        0.0618
     35 H          -2.8210    3.0676    0.2944 H       1  UNL1        0.0618
     36 H          -0.3699    2.8752   -0.0563 H       1  UNL1        0.0637
@<TRIPOS>BOND
     1     1     2    1
     2     2     3    1
     3     3     4    1
     4     4     5    2
     5     4     6   am
     6     6     7    1
     7     7     8   ar
     8     8     9   ar
     9     9    10   ar
    10    10    11   ar
    11    11    12   ar
    12     7    12   ar
    13     3    13    2
    14    13    14    1
    15    13    15    1
    16    15    16   ar
    17    16    17   ar
    18    17    18   ar
    19    18    19   ar
    20    19    20   ar
    21    15    20   ar
    22    20    21    1
    23     2    21    1
    24    21    22    2
    25    21    23    2
    26     1    24    1
    27     1    25    1
    28     1    26    1
    29     6    27    1
    30     8    28    1
    31     9    29    1
    32    10    30    1
    33    11    31    1
    34    14    32    1
    35    16    33    1
    36    17    34    1
    37    18    35    1
    38    19    36    1
