@<TRIPOS>MOLECULE
*****
   40    42     1     0     0
SMALL
bcc


@<TRIPOS>ATOM
      1 C           -2.0100    -1.9590    -0.3910 c3         1 UNL      -0.061800
      2 C1          -0.8090    -1.6270    -1.2310 ca         1 UNL      -0.049300
      3 C2          -1.0010    -1.4590    -2.6160 ca         1 UNL      -0.128000
      4 C3           0.0210    -0.9820    -3.4410 ca         1 UNL      -0.120000
      5 C4           1.1980    -0.5260    -2.8730 ca         1 UNL      -0.131000
      6 C5           1.4020    -0.6910    -1.5150 ca         1 UNL      -0.130000
      7 C6           0.4680    -1.3740    -0.7080 ca         1 UNL       0.041600
      8 N            0.8980    -1.8800     0.5760 n          1 UNL      -0.413000
      9 C7           0.4130    -1.1690     1.6720 c          1 UNL       0.736100
     10 O           -0.7340    -1.1410     2.0980 o          1 UNL      -0.609500
     11 C8           1.3980    -0.1980     2.1540 ca         1 UNL      -0.236600
     12 C9           1.0210     1.1300     2.2980 ca         1 UNL       0.075000
     13 C10          2.0340     2.0820     2.3880 ca         1 UNL      -0.428500
     14 S            1.5620     3.7760     2.3260 sy         1 UNL       1.530200
     15 N1           2.1330     4.2800     3.8150 n8         1 UNL      -1.026700
     16 O1           2.3310     4.4360     1.2960 o          1 UNL      -0.652300
     17 O2           0.1280     3.8810     2.4050 o          1 UNL      -0.652300
     18 C11          3.3770     1.6940     2.4560 ca         1 UNL       0.189400
     19 Cl           4.6940     2.8060     2.6110 cl         1 UNL      -0.078400
     20 C12          3.7220     0.3360     2.3660 ca         1 UNL      -0.239000
     21 C13          2.7300    -0.6100     2.1400 ca         1 UNL       0.257600
     22 N2           3.0170    -1.9540     1.8380 nu         1 UNL      -0.746600
     23 C14          2.3040    -2.3580     0.6190 c3         1 UNL       0.391900
     24 C15          2.3760    -3.8690     0.4370 c3         1 UNL      -0.143100
     25 H           -2.8280    -2.3520    -1.0050 hc         1 UNL       0.052700
     26 H1          -2.3840    -1.0410     0.0800 hc         1 UNL       0.052700
     27 H2          -1.7910    -2.7050     0.3740 hc         1 UNL       0.052700
     28 H3          -1.9550    -1.7210    -3.0670 ha         1 UNL       0.136000
     29 H4          -0.1250    -0.9290    -4.5140 ha         1 UNL       0.135000
     30 H5           1.9750    -0.0780    -3.4900 ha         1 UNL       0.136000
     31 H6           2.3130    -0.2740    -1.0920 ha         1 UNL       0.138000
     32 H7          -0.0300     1.4030     2.2360 ha         1 UNL       0.198000
     33 H8           2.9290     4.9110     3.7320 hn         1 UNL       0.449300
     34 H9           1.3810     4.5450     4.4480 hn         1 UNL       0.449300
     35 H10          4.7690     0.0450     2.3840 ha         1 UNL       0.156000
     36 H11          4.0170    -2.1260     1.7560 hn         1 UNL       0.433800
     37 H12          2.8910    -1.9550    -0.2090 h2         1 UNL       0.072700
     38 H13          1.9200    -4.4040     1.2740 hc         1 UNL       0.054367
     39 H14          3.4200    -4.1900     0.3530 hc         1 UNL       0.054367
     40 H15          1.8640    -4.1700    -0.4850 hc         1 UNL       0.054367
@<TRIPOS>BOND
     1     1     2 1   
     2     2     3 ar  
     3     3     4 ar  
     4     4     5 ar  
     5     5     6 ar  
     6     6     7 ar  
     7     2     7 ar  
     8     7     8 1   
     9     8     9 1   
    10     9    10 2   
    11     9    11 1   
    12    11    12 ar  
    13    12    13 ar  
    14    13    14 1   
    15    14    15 1   
    16    14    16 2   
    17    14    17 2   
    18    13    18 ar  
    19    18    19 1   
    20    18    20 ar  
    21    20    21 ar  
    22    11    21 ar  
    23    21    22 1   
    24    22    23 1   
    25     8    23 1   
    26    23    24 1   
    27     1    25 1   
    28     1    26 1   
    29     1    27 1   
    30     3    28 1   
    31     4    29 1   
    32     5    30 1   
    33     6    31 1   
    34    12    32 1   
    35    15    33 1   
    36    15    34 1   
    37    20    35 1   
    38    22    36 1   
    39    23    37 1   
    40    24    38 1   
    41    24    39 1   
    42    24    40 1   
@<TRIPOS>SUBSTRUCTURE
     1 UNL         1 TEMP              0 ****  ****    0 ROOT
