@<TRIPOS>MOLECULE
*****
 36 40 0 0 0
SMALL
GASTEIGER

@<TRIPOS>ATOM
      1 C          -5.7499    0.3806    0.0386 C.ar    1  UNL1       -0.0612
      2 C          -5.0984    1.6003   -0.0473 C.ar    1  UNL1       -0.0611
      3 C          -3.7012    1.6418   -0.0773 C.ar    1  UNL1       -0.0534
      4 C          -2.8995    0.4698   -0.0249 C.ar    1  UNL1       -0.0102
      5 C          -3.5976   -0.7578    0.0429 C.ar    1  UNL1       -0.0173
      6 C          -5.0026   -0.7920    0.0821 C.ar    1  UNL1       -0.0540
      7 C          -2.8848   -1.9506    0.0730 C.ar    1  UNL1       -0.0534
      8 C          -1.4906   -1.9492    0.0350 C.ar    1  UNL1       -0.0529
      9 C          -0.7262   -0.7619   -0.0159 C.ar    1  UNL1       -0.0096
     10 C          -1.4537    0.4596   -0.0341 C.ar    1  UNL1       -0.0096
     11 C          -0.7001    1.6432   -0.0510 C.ar    1  UNL1       -0.0528
     12 C           0.6953    1.6443   -0.0344 C.ar    1  UNL1       -0.0528
     13 C           1.4499    0.4613   -0.0211 C.ar    1  UNL1       -0.0096
     14 C           2.8961    0.4737    0.0048 C.ar    1  UNL1       -0.0102
     15 C           3.6945    1.6471    0.0773 C.ar    1  UNL1       -0.0534
     16 C           5.0922    1.6068    0.0997 C.ar    1  UNL1       -0.0611
     17 C           5.7475    0.3879    0.0433 C.ar    1  UNL1       -0.0612
     18 C           5.0028   -0.7854   -0.0243 C.ar    1  UNL1       -0.0540
     19 C           3.5973   -0.7530   -0.0351 C.ar    1  UNL1       -0.0173
     20 C           2.8866   -1.9469   -0.0819 C.ar    1  UNL1       -0.0534
     21 C           1.4919   -1.9473   -0.0731 C.ar    1  UNL1       -0.0529
     22 C           0.7252   -0.7606   -0.0364 C.ar    1  UNL1       -0.0096
     23 H          -6.8352    0.3388    0.0686 H       1  UNL1        0.0618
     24 H          -5.6699    2.5234   -0.0921 H       1  UNL1        0.0618
     25 H          -3.2477    2.6260   -0.1489 H       1  UNL1        0.0624
     26 H          -5.5285   -1.7421    0.1479 H       1  UNL1        0.0624
     27 H          -3.4029   -2.9061    0.1251 H       1  UNL1        0.0624
     28 H          -1.0146   -2.9248    0.0645 H       1  UNL1        0.0624
     29 H          -1.1800    2.6174   -0.0625 H       1  UNL1        0.0624
     30 H           1.1741    2.6190   -0.0413 H       1  UNL1        0.0624
     31 H           3.2375    2.6309    0.1307 H       1  UNL1        0.0624
     32 H           5.6604    2.5311    0.1634 H       1  UNL1        0.0618
     33 H           6.8329    0.3471    0.0570 H       1  UNL1        0.0618
     34 H           5.5316   -1.7355   -0.0639 H       1  UNL1        0.0624
     35 H           3.4069   -2.9018   -0.1173 H       1  UNL1        0.0624
     36 H           1.0177   -2.9236   -0.1069 H       1  UNL1        0.0624
@<TRIPOS>BOND
     1     1     2   ar
     2     2     3   ar
     3     3     4   ar
     4     4     5   ar
     5     5     6   ar
     6     1     6   ar
     7     5     7   ar
     8     7     8   ar
     9     8     9   ar
    10     9    10   ar
    11     4    10   ar
    12    10    11   ar
    13    11    12   ar
    14    12    13   ar
    15    13    14   ar
    16    14    15   ar
    17    15    16   ar
    18    16    17   ar
    19    17    18   ar
    20    18    19   ar
    21    14    19   ar
    22    19    20   ar
    23    20    21   ar
    24    21    22   ar
    25    13    22   ar
    26     9    22   ar
    27     1    23    1
    28     2    24    1
    29     3    25    1
    30     6    26    1
    31     7    27    1
    32     8    28    1
    33    11    29    1
    34    12    30    1
    35    15    31    1
    36    16    32    1
    37    17    33    1
    38    18    34    1
    39    20    35    1
    40    21    36    1
