@<TRIPOS>MOLECULE
*****
 14 15 0 0 0
SMALL
GASTEIGER

@<TRIPOS>ATOM
      1 C           2.2014    0.6747   -0.0039 C.ar    1  UNL1       -0.0595
      2 C           2.1660   -0.7262   -0.0019 C.ar    1  UNL1       -0.0582
      3 C           0.9525   -1.4258    0.0009 C.ar    1  UNL1       -0.0172
      4 C          -0.1939   -0.6408    0.0019 C.ar    1  UNL1        0.1550
      5 O          -1.4915   -1.0653    0.0050 O.2     1  UNL1       -0.4425
      6 C          -2.2064    0.0957    0.0051 C.ar    1  UNL1        0.1831
      7 N          -1.4965    1.2034    0.0020 N.ar    1  UNL1       -0.2161
      8 C          -0.2025    0.7456    0.0001 C.ar    1  UNL1        0.1093
      9 C           1.0189    1.4309   -0.0031 C.ar    1  UNL1       -0.0326
     10 H           3.1612    1.1877   -0.0061 H       1  UNL1        0.0618
     11 H           3.1014   -1.2834   -0.0024 H       1  UNL1        0.0619
     12 H           0.9051   -2.5072    0.0025 H       1  UNL1        0.0655
     13 H          -3.2829   -0.0031    0.0078 H       1  UNL1        0.1255
     14 H           1.0418    2.5148   -0.0046 H       1  UNL1        0.0640
@<TRIPOS>BOND
     1     1     2   ar
     2     2     3   ar
     3     3     4   ar
     4     4     5   ar
     5     5     6   ar
     6     6     7   ar
     7     7     8   ar
     8     4     8   ar
     9     8     9   ar
    10     1     9   ar
    11     1    10    1
    12     2    11    1
    13     3    12    1
    14     6    13    1
    15     9    14    1
