@<TRIPOS>MOLECULE
*****
 19 20 0 0 0
SMALL
GASTEIGER

@<TRIPOS>ATOM
      1 C          -2.1285    0.7082   -0.0598 C.ar    1  UNL1       -0.0615
      2 C          -2.1334   -0.6955   -0.0652 C.ar    1  UNL1       -0.0615
      3 C          -0.9358   -1.4122   -0.0036 C.ar    1  UNL1       -0.0583
      4 C           0.2511   -0.7012    0.0454 C.ar    1  UNL1       -0.0442
      5 C           0.2552    0.6984    0.0535 C.ar    1  UNL1       -0.0442
      6 C          -0.9269    1.4167    0.0086 C.ar    1  UNL1       -0.0583
      7 C           1.6528    1.2238    0.1590 C.3     1  UNL1       -0.0271
      8 C           2.4608   -0.0048   -0.2835 C.3     1  UNL1       -0.0451
      9 C           1.6463   -1.2361    0.1395 C.3     1  UNL1       -0.0271
     10 H          -3.0712    1.2485   -0.1065 H       1  UNL1        0.0618
     11 H          -3.0789   -1.2298   -0.1142 H       1  UNL1        0.0618
     12 H          -0.9402   -2.4969    0.0030 H       1  UNL1        0.0620
     13 H          -0.9257    2.5014    0.0234 H       1  UNL1        0.0620
     14 H           1.8774    1.4918    1.1967 H       1  UNL1        0.0313
     15 H           1.8320    2.0791   -0.4981 H       1  UNL1        0.0313
     16 H           3.4749   -0.0108    0.1284 H       1  UNL1        0.0272
     17 H           2.5561    0.0039   -1.3784 H       1  UNL1        0.0272
     18 H           1.8719   -1.5249    1.1711 H       1  UNL1        0.0313
     19 H           1.8186   -2.0799   -0.5344 H       1  UNL1        0.0313
@<TRIPOS>BOND
     1     1     2   ar
     2     2     3   ar
     3     3     4   ar
     4     4     5   ar
     5     5     6   ar
     6     1     6   ar
     7     5     7    1
     8     7     8    1
     9     8     9    1
    10     4     9    1
    11     1    10    1
    12     2    11    1
    13     3    12    1
    14     6    13    1
    15     7    14    1
    16     7    15    1
    17     8    16    1
    18     8    17    1
    19     9    18    1
    20     9    19    1
