@<TRIPOS>MOLECULE
*****
 32 36 0 0 0
SMALL
GASTEIGER

@<TRIPOS>ATOM
      1 C           4.8072   -0.1466   -0.0009 C.ar    1  UNL1       -0.0612
      2 C           4.4275    1.1851   -0.0016 C.ar    1  UNL1       -0.0611
      3 C           3.0719    1.5194   -0.0015 C.ar    1  UNL1       -0.0534
      4 C           2.0477    0.5375   -0.0006 C.ar    1  UNL1       -0.0101
      5 C           2.4611   -0.8165   -0.0001 C.ar    1  UNL1       -0.0167
      6 C           3.8303   -1.1402   -0.0003 C.ar    1  UNL1       -0.0540
      7 C           1.5030   -1.8390    0.0006 C.ar    1  UNL1       -0.0462
      8 C           0.1308   -1.5575    0.0008 C.ar    1  UNL1       -0.0161
      9 C          -0.8127   -2.5957    0.0013 C.ar    1  UNL1       -0.0534
     10 C          -2.1811   -2.3205    0.0017 C.ar    1  UNL1       -0.0534
     11 C          -2.6402   -0.9993    0.0015 C.ar    1  UNL1       -0.0167
     12 C          -4.0130   -0.7065    0.0014 C.ar    1  UNL1       -0.0540
     13 C          -4.4591    0.6142    0.0004 C.ar    1  UNL1       -0.0606
     14 C          -3.5387    1.6580   -0.0003 C.ar    1  UNL1       -0.0540
     15 C          -2.1625    1.3930    0.0001 C.ar    1  UNL1       -0.0167
     16 C          -1.2359    2.4327   -0.0002 C.ar    1  UNL1       -0.0534
     17 C           0.1331    2.1612   -0.0005 C.ar    1  UNL1       -0.0528
     18 C           0.6441    0.8430   -0.0001 C.ar    1  UNL1       -0.0090
     19 C          -0.3033   -0.2150    0.0005 C.ar    1  UNL1       -0.0019
     20 C          -1.6999    0.0586    0.0007 C.ar    1  UNL1       -0.0025
     21 H           5.8604   -0.4137   -0.0007 H       1  UNL1        0.0618
     22 H           5.1779    1.9712   -0.0020 H       1  UNL1        0.0618
     23 H           2.8304    2.5779   -0.0020 H       1  UNL1        0.0624
     24 H           4.1501   -2.1804    0.0001 H       1  UNL1        0.0624
     25 H           1.8321   -2.8766    0.0008 H       1  UNL1        0.0630
     26 H          -0.4906   -3.6352    0.0013 H       1  UNL1        0.0624
     27 H          -2.8846   -3.1496    0.0019 H       1  UNL1        0.0624
     28 H          -4.7475   -1.5085    0.0017 H       1  UNL1        0.0624
     29 H          -5.5242    0.8302   -0.0001 H       1  UNL1        0.0618
     30 H          -3.9021    2.6834   -0.0010 H       1  UNL1        0.0624
     31 H          -1.5646    3.4696   -0.0006 H       1  UNL1        0.0624
     32 H           0.7982    3.0196   -0.0006 H       1  UNL1        0.0624
@<TRIPOS>BOND
     1     1     2   ar
     2     2     3   ar
     3     3     4   ar
     4     4     5   ar
     5     5     6   ar
     6     1     6   ar
     7     5     7   ar
     8     7     8   ar
     9     8     9   ar
    10     9    10   ar
    11    10    11   ar
    12    11    12   ar
    13    12    13   ar
    14    13    14   ar
    15    14    15   ar
    16    15    16   ar
    17    16    17   ar
    18    17    18   ar
    19     4    18   ar
    20    18    19   ar
    21     8    19   ar
    22    19    20   ar
    23    11    20   ar
    24    15    20   ar
    25     1    21    1
    26     2    22    1
    27     3    23    1
    28     6    24    1
    29     7    25    1
    30     9    26    1
    31    10    27    1
    32    12    28    1
    33    13    29    1
    34    14    30    1
    35    16    31    1
    36    17    32    1
