@<TRIPOS>MOLECULE
*****
   33    34     1     0     0
SMALL
bcc


@<TRIPOS>ATOM
      1 C            1.1500    -0.1170    -0.0450 c3         1 UNL      -0.121400
      2 C1           2.6200     0.0690    -0.0210 cc         1 UNL       0.314600
      3 C2           3.3290     1.2570     0.2300 cc         1 UNL      -0.273300
      4 C3           4.6640     0.9090     0.2240 cd         1 UNL       0.091800
      5 O            5.7840     1.6150     0.3290 os         1 UNL      -0.331200
      6 C4           5.7820     2.8290     0.9340 c          1 UNL       0.729100
      7 O1           4.8130     3.3230     1.5020 o          1 UNL      -0.553000
      8 N            7.0150     3.4670     0.8790 n          1 UNL      -0.428800
      9 C5           8.1880     2.9200     0.2170 c3         1 UNL       0.071300
     10 C6           7.1740     4.7530     1.5310 c3         1 UNL       0.071300
     11 N1           4.6910    -0.4640    -0.0080 na         1 UNL       0.155300
     12 C7           5.8090    -1.3450     0.0190 ca         1 UNL       0.015800
     13 C8           6.9510    -1.0400     0.7730 ca         1 UNL      -0.118500
     14 C9           8.0310    -1.9250     0.8010 ca         1 UNL      -0.126000
     15 C10          7.9840    -3.1090     0.0670 ca         1 UNL      -0.126000
     16 C11          6.8490    -3.4210    -0.6800 ca         1 UNL      -0.126000
     17 C12          5.7550    -2.5530    -0.6920 ca         1 UNL      -0.118500
     18 N2           3.4430    -0.9560    -0.2570 nd         1 UNL      -0.489800
     19 H            0.6320     0.8480    -0.0450 hc         1 UNL       0.051033
     20 H1           0.8250    -0.6720     0.8430 hc         1 UNL       0.051033
     21 H2           0.8360    -0.6700    -0.9350 hc         1 UNL       0.051033
     22 H3           2.9150     2.2420     0.3910 ha         1 UNL       0.174000
     23 H4           7.9920     1.9650    -0.2740 h1         1 UNL       0.052200
     24 H5           8.9750     2.7790     0.9650 h1         1 UNL       0.052200
     25 H6           8.5310     3.6370    -0.5350 h1         1 UNL       0.052200
     26 H7           6.2460     5.1040     1.9910 h1         1 UNL       0.052200
     27 H8           7.4970     5.4890     0.7890 h1         1 UNL       0.052200
     28 H9           7.9360     4.6590     2.3100 h1         1 UNL       0.052200
     29 H10          7.0060    -0.1510     1.3940 ha         1 UNL       0.157500
     30 H11          8.9030    -1.6970     1.4090 ha         1 UNL       0.137500
     31 H12          8.8270    -3.7940     0.0870 ha         1 UNL       0.135000
     32 H13          6.8140    -4.3440    -1.2540 ha         1 UNL       0.137500
     33 H14          4.8770    -2.8140    -1.2810 ha         1 UNL       0.157500
@<TRIPOS>BOND
     1     1     2 1   
     2     2     3 1   
     3     3     4 2   
     4     4     5 1   
     5     5     6 1   
     6     6     7 2   
     7     6     8 1   
     8     8     9 1   
     9     8    10 1   
    10     4    11 1   
    11    11    12 1   
    12    12    13 ar  
    13    13    14 ar  
    14    14    15 ar  
    15    15    16 ar  
    16    16    17 ar  
    17    12    17 ar  
    18    11    18 1   
    19     2    18 2   
    20     1    19 1   
    21     1    20 1   
    22     1    21 1   
    23     3    22 1   
    24     9    23 1   
    25     9    24 1   
    26     9    25 1   
    27    10    26 1   
    28    10    27 1   
    29    10    28 1   
    30    13    29 1   
    31    14    30 1   
    32    15    31 1   
    33    16    32 1   
    34    17    33 1   
@<TRIPOS>SUBSTRUCTURE
     1 UNL         1 TEMP              0 ****  ****    0 ROOT
