@<TRIPOS>MOLECULE
*****
 46 49 0 0 0
SMALL
GASTEIGER

@<TRIPOS>ATOM
      1 C           1.3502   -1.3823   -1.5671 C.3     1  UNL1       -0.0522
      2 C           2.6374   -0.7993   -0.9652 C.3     1  UNL1        0.0359
      3 C           3.0895   -1.5930    0.2428 C.3     1  UNL1        0.0185
      4 C           1.9902   -1.5265    1.3201 C.2     1  UNL1        0.1384
      5 O           1.6851   -2.5370    1.9539 O.2     1  UNL1       -0.2970
      6 C           1.4022   -0.1403    1.6833 C.3     1  UNL1        0.0297
      7 C           1.5033    0.8774    0.5022 C.3     1  UNL1       -0.0267
      8 C           1.5629    2.2485    1.1580 C.3     1  UNL1       -0.0455
      9 C           0.1391    2.5688    1.5692 C.3     1  UNL1       -0.0305
     10 C          -0.5963    1.4320    2.2714 C.2     1  UNL1       -0.0597
     11 C          -1.6363    1.8227    3.0316 C.2     1  UNL1       -0.0194
     12 C          -2.3372    0.8993    3.9422 C.2     1  UNL1        0.1561
     13 O          -3.3659    1.2802    4.5104 O.2     1  UNL1       -0.2927
     14 C          -1.7663   -0.4858    4.1282 C.3     1  UNL1        0.0107
     15 C          -0.2856   -0.5679    3.6867 C.3     1  UNL1       -0.0363
     16 C          -0.0985   -0.0611    2.2245 C.3     1  UNL1       -0.0005
     17 C          -1.0230   -0.9660    1.3558 C.3     1  UNL1       -0.0552
     18 C           2.5936    0.6741   -0.5318 C.3     1  UNL1       -0.0247
     19 C           2.4089    1.4540   -1.8476 C.3     1  UNL1       -0.0423
     20 C           3.2222    0.6709   -2.8884 C.3     1  UNL1        0.0067
     21 C           3.5604   -0.5976   -2.1524 C.2     1  UNL1        0.1399
     22 O           4.4171   -1.4086   -2.5039 O.2     1  UNL1       -0.2968
     23 H           0.6047   -1.5843   -0.8086 H       1  UNL1        0.0239
     24 H           1.5499   -2.3397   -2.0570 H       1  UNL1        0.0239
     25 H           0.8810   -0.7278   -2.3090 H       1  UNL1        0.0239
     26 H           4.0211   -1.2004    0.6705 H       1  UNL1        0.0351
     27 H           3.2782   -2.6372   -0.0302 H       1  UNL1        0.0351
     28 H           2.0638    0.1848    2.5005 H       1  UNL1        0.0389
     29 H           0.5739    0.8149   -0.0786 H       1  UNL1        0.0311
     30 H           1.9523    3.0247    0.4922 H       1  UNL1        0.0271
     31 H           2.2264    2.2475    2.0357 H       1  UNL1        0.0271
     32 H          -0.4193    2.8504    0.6684 H       1  UNL1        0.0310
     33 H           0.1731    3.4552    2.2161 H       1  UNL1        0.0310
     34 H          -1.9846    2.8541    3.0530 H       1  UNL1        0.0652
     35 H          -2.3996   -1.1726    3.5582 H       1  UNL1        0.0345
     36 H          -1.8550   -0.7545    5.1833 H       1  UNL1        0.0345
     37 H           0.0514   -1.6044    3.7971 H       1  UNL1        0.0278
     38 H           0.3232    0.0387    4.3693 H       1  UNL1        0.0278
     39 H          -2.0797   -0.6923    1.4282 H       1  UNL1        0.0238
     40 H          -0.9414   -2.0173    1.6716 H       1  UNL1        0.0238
     41 H          -0.7965   -0.9323    0.2961 H       1  UNL1        0.0238
     42 H           3.5660    0.9772   -0.1073 H       1  UNL1        0.0313
     43 H           2.7507    2.4912   -1.7736 H       1  UNL1        0.0272
     44 H           1.3532    1.4941   -2.1475 H       1  UNL1        0.0272
     45 H           4.1279    1.2052   -3.1931 H       1  UNL1        0.0342
     46 H           2.6084    0.4388   -3.7637 H       1  UNL1        0.0342
@<TRIPOS>BOND
     1     1     2    1
     2     2     3    1
     3     3     4    1
     4     4     5    2
     5     4     6    1
     6     6     7    1
     7     7     8    1
     8     8     9    1
     9     9    10    1
    10    10    11    2
    11    11    12    1
    12    12    13    2
    13    12    14    1
    14    14    15    1
    15    15    16    1
    16    10    16    1
    17     6    16    1
    18    16    17    1
    19     7    18    1
    20     2    18    1
    21    18    19    1
    22    19    20    1
    23    20    21    1
    24     2    21    1
    25    21    22    2
    26     1    23    1
    27     1    24    1
    28     1    25    1
    29     3    26    1
    30     3    27    1
    31     6    28    1
    32     7    29    1
    33     8    30    1
    34     8    31    1
    35     9    32    1
    36     9    33    1
    37    11    34    1
    38    14    35    1
    39    14    36    1
    40    15    37    1
    41    15    38    1
    42    17    39    1
    43    17    40    1
    44    17    41    1
    45    18    42    1
    46    19    43    1
    47    19    44    1
    48    20    45    1
    49    20    46    1
