@<TRIPOS>MOLECULE
*****
 30 32 0 0 0
SMALL
GASTEIGER

@<TRIPOS>ATOM
      1 N           1.3494    0.0345    0.1435 N.pl3   1  UNL1       -0.3274
      2 C           2.7243    0.0206    0.0488 C.ar    1  UNL1        0.2163
      3 N           3.3224   -1.1612   -0.0529 N.ar    1  UNL1       -0.1978
      4 C           4.6635   -1.1479   -0.1072 C.ar    1  UNL1        0.1491
      5 N           5.2724   -2.4032   -0.2765 N.pl3   1  UNL1       -0.3413
      6 C           5.4343    0.0086   -0.0751 C.ar    1  UNL1        0.1482
      7 N           6.8002    0.0097   -0.0799 N.ar    1  UNL1       -0.2367
      8 C           7.4184    1.2166   -0.0121 C.ar    1  UNL1        0.1113
      9 C           8.8991    1.1640    0.0064 C.ar    1  UNL1        0.0037
     10 C           9.5918    0.1484   -0.6808 C.ar    1  UNL1       -0.0525
     11 C          10.9902    0.1027   -0.7076 C.ar    1  UNL1       -0.0611
     12 C          11.7327    1.0746   -0.0445 C.ar    1  UNL1       -0.0617
     13 C          11.0780    2.0722    0.6689 C.ar    1  UNL1       -0.0611
     14 C           9.6803    2.1035    0.7072 C.ar    1  UNL1       -0.0525
     15 C           6.6484    2.3933    0.0082 C.ar    1  UNL1        0.1448
     16 N           7.1879    3.6806    0.0502 N.pl3   1  UNL1       -0.3414
     17 N           5.2996    2.3651    0.0202 N.ar    1  UNL1       -0.2091
     18 C           4.6789    1.1818   -0.0044 C.ar    1  UNL1        0.1868
     19 N           3.3504    1.1913    0.0450 N.ar    1  UNL1       -0.1932
     20 H           0.9519   -0.8117   -0.2395 H       1  UNL1        0.1452
     21 H           0.9757    0.9170   -0.1752 H       1  UNL1        0.1452
     22 H           4.5839   -3.1338   -0.1297 H       1  UNL1        0.1438
     23 H           6.1085   -2.4866    0.2950 H       1  UNL1        0.1438
     24 H           9.0362   -0.6235   -1.2124 H       1  UNL1        0.0624
     25 H          11.4958   -0.6922   -1.2499 H       1  UNL1        0.0618
     26 H          12.8184    1.0492   -0.0751 H       1  UNL1        0.0618
     27 H          11.6501    2.8270    1.2024 H       1  UNL1        0.0618
     28 H           9.2080    2.8797    1.3070 H       1  UNL1        0.0624
     29 H           7.8831    3.8253   -0.6748 H       1  UNL1        0.1438
     30 H           6.4157    4.3401   -0.0150 H       1  UNL1        0.1438
@<TRIPOS>BOND
     1     1     2    1
     2     2     3   ar
     3     3     4   ar
     4     4     5    1
     5     4     6   ar
     6     6     7   ar
     7     7     8   ar
     8     8     9    1
     9     9    10   ar
    10    10    11   ar
    11    11    12   ar
    12    12    13   ar
    13    13    14   ar
    14     9    14   ar
    15     8    15   ar
    16    15    16    1
    17    15    17   ar
    18    17    18   ar
    19     6    18   ar
    20    18    19   ar
    21     2    19   ar
    22     1    20    1
    23     1    21    1
    24     5    22    1
    25     5    23    1
    26    10    24    1
    27    11    25    1
    28    12    26    1
    29    13    27    1
    30    14    28    1
    31    16    29    1
    32    16    30    1
