@<TRIPOS>MOLECULE
*****
 14 14 0 0 0
SMALL
GASTEIGER

@<TRIPOS>ATOM
      1 N           2.9756   -0.6149    1.2223 N.am    1  UNL1       -0.3240
      2 C           2.4817   -0.0430    0.0816 C.2     1  UNL1        0.2614
      3 O           1.4798    0.6644    0.1045 O.2     1  UNL1       -0.2687
      4 C           3.2329   -0.3107   -1.1739 C.ar    1  UNL1        0.1431
      5 C           2.8154    0.2760   -2.3611 C.ar    1  UNL1        0.0580
      6 N           3.4612    0.0706   -3.5383 N.ar    1  UNL1       -0.2595
      7 C           4.5372   -0.7459   -3.4712 C.ar    1  UNL1        0.0457
      8 C           4.9558   -1.3303   -2.2829 C.ar    1  UNL1        0.0465
      9 N           4.3215   -1.1309   -1.1027 N.ar    1  UNL1       -0.2473
     10 H           2.5320   -0.3994    2.1041 H       1  UNL1        0.1453
     11 H           3.8654   -1.1000    1.2057 H       1  UNL1        0.1453
     12 H           1.9519    0.9314   -2.4019 H       1  UNL1        0.0853
     13 H           5.0615   -0.9184   -4.4050 H       1  UNL1        0.0845
     14 H           5.8219   -1.9830   -2.2555 H       1  UNL1        0.0845
@<TRIPOS>BOND
     1     1     2   am
     2     2     3    2
     3     2     4    1
     4     4     5   ar
     5     5     6   ar
     6     6     7   ar
     7     7     8   ar
     8     8     9   ar
     9     4     9   ar
    10     1    10    1
    11     1    11    1
    12     5    12    1
    13     7    13    1
    14     8    14    1
