@<TRIPOS>MOLECULE
*****
 41 42 0 0 0
SMALL
GASTEIGER

@<TRIPOS>ATOM
      1 C          11.0823    4.3008   -2.8624 C.3     1  UNL1       -0.0341
      2 C          10.1409    3.2310   -2.4079 C.ar    1  UNL1        0.0256
      3 C          10.2347    1.9205   -2.8762 C.ar    1  UNL1        0.1646
      4 F          11.1925    1.5966   -3.7572 F       1  UNL1       -0.2021
      5 C           9.3423    0.9301   -2.4477 C.ar    1  UNL1        0.1680
      6 F           9.4756   -0.3105   -2.9390 F       1  UNL1       -0.2020
      7 C           8.3355    1.2175   -1.5265 C.ar    1  UNL1        0.0657
      8 C           7.3448    0.1878   -1.0473 C.3     1  UNL1        0.1230
      9 O           7.8928   -1.1388   -0.9752 O.3     1  UNL1       -0.4595
     10 C           8.6482   -1.3463    0.1311 C.2     1  UNL1        0.3116
     11 O           8.8334   -0.5187    1.0148 O.2     1  UNL1       -0.2505
     12 C           9.3267   -2.6728    0.1289 C.3     1  UNL1        0.0689
     13 C          10.5614   -2.7643    1.0068 C.3     1  UNL1       -0.0019
     14 C          11.8071   -3.3374    0.4883 C.2     1  UNL1       -0.0567
     15 C          12.7549   -3.9565    1.2218 C.2     1  UNL1        0.1170
     16 CL         12.5382   -4.1641    2.9358 Cl      1  UNL1       -0.0794
     17 C          14.0320   -4.4950    0.6526 C.3     1  UNL1        0.4275
     18 F          14.8348   -5.0853    1.5739 F       1  UNL1       -0.1651
     19 F          13.7942   -5.4254   -0.3092 F       1  UNL1       -0.1651
     20 F          14.7677   -3.5138    0.0673 F       1  UNL1       -0.1651
     21 C           9.3573   -3.6316    1.3194 C.3     1  UNL1       -0.0144
     22 C           8.5917   -3.3137    2.5815 C.3     1  UNL1       -0.0585
     23 C           9.4412   -5.1201    1.0505 C.3     1  UNL1       -0.0585
     24 C           8.2348    2.5331   -1.0656 C.ar    1  UNL1        0.1680
     25 F           7.2675    2.8625   -0.2017 F       1  UNL1       -0.2020
     26 C           9.1271    3.5212   -1.4954 C.ar    1  UNL1        0.1646
     27 F           8.9984    4.7710   -1.0256 F       1  UNL1       -0.2021
     28 H          11.8226    3.9168   -3.5715 H       1  UNL1        0.0279
     29 H          11.6246    4.7152   -2.0065 H       1  UNL1        0.0279
     30 H          10.5302    5.1048   -3.3601 H       1  UNL1        0.0279
     31 H           6.4981    0.1610   -1.7393 H       1  UNL1        0.0750
     32 H           6.9338    0.4644   -0.0656 H       1  UNL1        0.0750
     33 H           9.3409   -3.1467   -0.8481 H       1  UNL1        0.0425
     34 H          10.7443   -1.9203    1.6717 H       1  UNL1        0.0357
     35 H          11.9889   -3.2106   -0.5794 H       1  UNL1        0.0589
     36 H           8.4928   -2.2415    2.7671 H       1  UNL1        0.0235
     37 H           9.1066   -3.7462    3.4464 H       1  UNL1        0.0235
     38 H           7.5845   -3.7410    2.5356 H       1  UNL1        0.0235
     39 H           9.9420   -5.3503    0.1048 H       1  UNL1        0.0235
     40 H           8.4416   -5.5639    1.0123 H       1  UNL1        0.0235
     41 H           9.9965   -5.6169    1.8544 H       1  UNL1        0.0235
@<TRIPOS>BOND
     1     1     2    1
     2     2     3   ar
     3     3     4    1
     4     3     5   ar
     5     5     6    1
     6     5     7   ar
     7     7     8    1
     8     8     9    1
     9     9    10    1
    10    10    11    2
    11    10    12    1
    12    12    13    1
    13    13    14    1
    14    14    15    2
    15    15    16    1
    16    15    17    1
    17    17    18    1
    18    17    19    1
    19    17    20    1
    20    13    21    1
    21    12    21    1
    22    21    22    1
    23    21    23    1
    24     7    24   ar
    25    24    25    1
    26    24    26   ar
    27     2    26   ar
    28    26    27    1
    29     1    28    1
    30     1    29    1
    31     1    30    1
    32     8    31    1
    33     8    32    1
    34    12    33    1
    35    13    34    1
    36    14    35    1
    37    22    36    1
    38    22    37    1
    39    22    38    1
    40    23    39    1
    41    23    40    1
    42    23    41    1
