@<TRIPOS>MOLECULE
*****
   56    58     1     0     0
SMALL
bcc


@<TRIPOS>ATOM
      1 C            0.5970     1.2970    -1.5600 c3         1 UNL      -0.100100
      2 C1           2.0050     1.7640    -1.8780 c3         1 UNL       0.128400
      3 O            2.9230     1.0580    -1.0410 os         1 UNL      -0.330900
      4 C2           4.2460     1.3610    -1.2120 ca         1 UNL       0.128100
      5 C3           4.7530     2.2870    -2.1180 ca         1 UNL      -0.182000
      6 C4           6.1300     2.5120    -2.2130 ca         1 UNL      -0.093500
      7 C5           7.0470     1.8210    -1.4020 ca         1 UNL      -0.111300
      8 C6           8.5670     2.0520    -1.5080 c3         1 UNL       0.002300
      9 C7           8.9470     3.0960    -2.5900 c3         1 UNL      -0.084600
     10 C8           9.1060     2.5860    -0.1630 c3         1 UNL      -0.084600
     11 C9           9.2710     0.7120    -1.8630 c3         1 UNL       0.136400
     12 O1          10.6820     0.9090    -1.9810 os         1 UNL      -0.423600
     13 C10         11.3660    -0.2980    -2.2980 c3         1 UNL       0.174700
     14 C11         12.8370     0.0040    -2.4080 ca         1 UNL      -0.067300
     15 C12         13.3010     0.9120    -3.3730 ca         1 UNL      -0.121000
     16 C13         14.6650     1.1540    -3.5210 ca         1 UNL      -0.111000
     17 C14         15.5810     0.5030    -2.6950 ca         1 UNL      -0.168000
     18 C15         15.1290    -0.3350    -1.6720 ca         1 UNL       0.102100
     19 O2          15.9510    -0.9690    -0.7650 os         1 UNL      -0.251200
     20 C16         17.1050    -0.3470    -0.3390 ca         1 UNL       0.107100
     21 C17         17.2550     1.0350    -0.2020 ca         1 UNL      -0.159500
     22 C18         18.4870     1.5740     0.1710 ca         1 UNL      -0.107500
     23 C19         19.5530     0.7310     0.4760 ca         1 UNL      -0.152000
     24 C20         19.3820    -0.6540     0.4200 ca         1 UNL      -0.107500
     25 C21         18.1610    -1.1900     0.0160 ca         1 UNL      -0.159500
     26 C22         13.7640    -0.6130    -1.5580 ca         1 UNL      -0.141000
     27 C23          6.5160     0.8990    -0.4830 ca         1 UNL      -0.093500
     28 C24          5.1360     0.6690    -0.3930 ca         1 UNL      -0.182000
     29 H           -0.1300     1.8100    -2.1970 hc         1 UNL       0.049033
     30 H1           0.3510     1.4980    -0.5120 hc         1 UNL       0.049033
     31 H2           0.5030     0.2170    -1.7140 hc         1 UNL       0.049033
     32 H3           2.0710     2.8410    -1.6870 h1         1 UNL       0.038200
     33 H4           2.2150     1.5540    -2.9330 h1         1 UNL       0.038200
     34 H5           4.1100     2.8590    -2.7770 ha         1 UNL       0.142000
     35 H6           6.4560     3.2480    -2.9390 ha         1 UNL       0.135000
     36 H7           8.4940     4.0730    -2.3820 hc         1 UNL       0.041200
     37 H8           8.6230     2.7740    -3.5860 hc         1 UNL       0.041200
     38 H9          10.0310     3.2580    -2.6390 hc         1 UNL       0.041200
     39 H10          8.6130     3.5250     0.1150 hc         1 UNL       0.041200
     40 H11         10.1830     2.7820    -0.2120 hc         1 UNL       0.041200
     41 H12          8.9450     1.8760     0.6560 hc         1 UNL       0.041200
     42 H13          8.8820     0.3220    -2.8130 h1         1 UNL       0.032700
     43 H14          9.0910    -0.0430    -1.0880 h1         1 UNL       0.032700
     44 H15         11.0070    -0.7000    -3.2520 h1         1 UNL       0.039700
     45 H16         11.1810    -1.0420    -1.5140 h1         1 UNL       0.039700
     46 H17         12.5910     1.4330    -4.0130 ha         1 UNL       0.153000
     47 H18         15.0160     1.8520    -4.2740 ha         1 UNL       0.136000
     48 H19         16.6420     0.6810    -2.8440 ha         1 UNL       0.148000
     49 H20         16.4280     1.7100    -0.4050 ha         1 UNL       0.149500
     50 H21         18.6130     2.6530     0.2200 ha         1 UNL       0.134500
     51 H22         20.5130     1.1500     0.7640 ha         1 UNL       0.134000
     52 H23         20.2050    -1.3140     0.6880 ha         1 UNL       0.134500
     53 H24         18.0320    -2.2690    -0.0330 ha         1 UNL       0.149500
     54 H25         13.4290    -1.3070    -0.7900 ha         1 UNL       0.149000
     55 H26          7.1700     0.3380     0.1830 ha         1 UNL       0.135000
     56 H27          4.7570    -0.0540     0.3250 ha         1 UNL       0.142000
@<TRIPOS>BOND
     1     1     2 1   
     2     2     3 1   
     3     3     4 1   
     4     4     5 ar  
     5     5     6 ar  
     6     6     7 ar  
     7     7     8 1   
     8     8     9 1   
     9     8    10 1   
    10     8    11 1   
    11    11    12 1   
    12    12    13 1   
    13    13    14 1   
    14    14    15 ar  
    15    15    16 ar  
    16    16    17 ar  
    17    17    18 ar  
    18    18    19 1   
    19    19    20 1   
    20    20    21 ar  
    21    21    22 ar  
    22    22    23 ar  
    23    23    24 ar  
    24    24    25 ar  
    25    20    25 ar  
    26    18    26 ar  
    27    14    26 ar  
    28     7    27 ar  
    29    27    28 ar  
    30     4    28 ar  
    31     1    29 1   
    32     1    30 1   
    33     1    31 1   
    34     2    32 1   
    35     2    33 1   
    36     5    34 1   
    37     6    35 1   
    38     9    36 1   
    39     9    37 1   
    40     9    38 1   
    41    10    39 1   
    42    10    40 1   
    43    10    41 1   
    44    11    42 1   
    45    11    43 1   
    46    13    44 1   
    47    13    45 1   
    48    15    46 1   
    49    16    47 1   
    50    17    48 1   
    51    21    49 1   
    52    22    50 1   
    53    23    51 1   
    54    24    52 1   
    55    25    53 1   
    56    26    54 1   
    57    27    55 1   
    58    28    56 1   
@<TRIPOS>SUBSTRUCTURE
     1 UNL         1 TEMP              0 ****  ****    0 ROOT
