@<TRIPOS>MOLECULE
*****
 33 35 0 0 0
SMALL
GASTEIGER

@<TRIPOS>ATOM
      1 N           1.0726    0.1569   -0.1031 N.pl3   1  UNL1       -0.3425
      2 C           2.4490    0.0342    0.0263 C.ar    1  UNL1        0.1286
      3 N           3.1593    1.1675    0.1560 N.ar    1  UNL1       -0.2204
      4 C           4.5018    1.0682    0.2411 C.ar    1  UNL1        0.1204
      5 N           5.2597   -0.0430    0.2013 N.ar    1  UNL1       -0.2175
      6 C           4.5081   -1.1543    0.0883 C.ar    1  UNL1        0.1478
      7 C           3.1188   -1.1925    0.0130 C.ar    1  UNL1        0.0584
      8 C           2.7513   -2.5626   -0.0838 C.ar    1  UNL1       -0.0315
      9 C           3.9120   -3.3089   -0.0940 C.ar    1  UNL1        0.0098
     10 N           4.9766   -2.4341   -0.0452 N.ar    1  UNL1       -0.3031
     11 C1*         6.3599   -2.8483   -0.2211 C.3     1  UNL1        0.1654
     12 O4*         7.1347   -2.5792    0.9673 O.3     1  UNL1       -0.3457
     13 C4*         8.4975   -2.3220    0.5223 C.3     1  UNL1        0.1126
     14 C5*         9.4685   -3.1443    1.3669 C.3     1  UNL1        0.0730
     15 O5*         9.1605   -4.5332    1.2431 O.3     1  UNL1       -0.3924
     16 C3*         8.5461   -2.6306   -0.9918 C.3     1  UNL1        0.1135
     17 O3*         8.7678   -4.0073   -1.3222 O.3     1  UNL1       -0.3864
     18 C2*         7.1341   -2.2745   -1.4215 C.3     1  UNL1        0.1285
     19 O2*         7.0921   -0.8596   -1.6181 O.3     1  UNL1       -0.3847
     20 H           0.7510    1.0739    0.1815 H       1  UNL1        0.1437
     21 H           0.5278   -0.6384    0.2020 H       1  UNL1        0.1437
     22 H           5.0380    2.0090    0.3410 H       1  UNL1        0.1048
     23 H           1.7470   -2.9601   -0.1549 H       1  UNL1        0.0640
     24 H           4.0613   -4.3769   -0.1684 H       1  UNL1        0.0810
     25 H1*         6.3423   -3.9419   -0.3076 H       1  UNL1        0.0866
     26 H4*         8.6783   -1.2548    0.6898 H       1  UNL1        0.0647
     27 H5*1        9.3945   -2.8822    2.4249 H       1  UNL1        0.0584
     28 H5*2       10.4994   -2.9924    1.0347 H       1  UNL1        0.0584
     29 H5*         8.3516   -4.6749    1.7783 H       1  UNL1        0.2095
     30 H3*         9.3203   -2.0287   -1.4853 H       1  UNL1        0.0647
     31 H3*         8.9502   -4.5078   -0.4958 H       1  UNL1        0.2100
     32 H2*         6.8237   -2.7574   -2.3535 H       1  UNL1        0.0665
     33 H2*         6.5719   -0.4527   -0.8937 H       1  UNL1        0.2101
@<TRIPOS>BOND
     1     1     2    1
     2     2     3   ar
     3     3     4   ar
     4     4     5   ar
     5     5     6   ar
     6     6     7   ar
     7     2     7   ar
     8     7     8   ar
     9     8     9   ar
    10     9    10   ar
    11     6    10   ar
    12    10    11    1
    13    11    12    1
    14    12    13    1
    15    13    14    1
    16    14    15    1
    17    13    16    1
    18    16    17    1
    19    16    18    1
    20    11    18    1
    21    18    19    1
    22     1    20    1
    23     1    21    1
    24     4    22    1
    25     8    23    1
    26     9    24    1
    27    11    25    1
    28    13    26    1
    29    14    27    1
    30    14    28    1
    31    15    29    1
    32    16    30    1
    33    17    31    1
    34    18    32    1
    35    19    33    1
