@<TRIPOS>MOLECULE
*****
 15 15 0 0 0
SMALL
GASTEIGER

@<TRIPOS>ATOM
      1 C           1.0257    0.0560    0.0906 C.3     1  UNL1       -0.0242
      2 C           2.5217   -0.0055    0.0914 C.ar    1  UNL1        0.0200
      3 C           3.2028   -1.1591    0.0909 C.ar    1  UNL1        0.0217
      4 C           4.6782   -1.1329    0.0926 C.ar    1  UNL1        0.2522
      5 O           5.3295   -2.1708    0.0941 O.2     1  UNL1       -0.2678
      6 N           5.2549    0.1078    0.0927 N.ar    1  UNL1       -0.3028
      7 C           4.5642    1.2844    0.0923 C.ar    1  UNL1        0.1581
      8 S           5.3368    2.7554    0.0916 S.2     1  UNL1       -0.0130
      9 N           3.2003    1.1904    0.0925 N.ar    1  UNL1       -0.3390
     10 H           0.5782   -0.9438    0.0892 H       1  UNL1        0.0292
     11 H           0.6642    0.5842   -0.7977 H       1  UNL1        0.0292
     12 H           0.6634    0.5819    0.9800 H       1  UNL1        0.0292
     13 H           2.7320   -2.1337    0.0892 H       1  UNL1        0.0689
     14 H           6.2636    0.1383    0.0935 H       1  UNL1        0.1708
     15 H           2.6822    2.0644    0.0926 H       1  UNL1        0.1675
@<TRIPOS>BOND
     1     1     2    1
     2     2     3   ar
     3     3     4   ar
     4     4     5    2
     5     4     6   ar
     6     6     7   ar
     7     7     8    2
     8     7     9   ar
     9     2     9   ar
    10     1    10    1
    11     1    11    1
    12     1    12    1
    13     3    13    1
    14     6    14    1
    15     9    15    1
