@<TRIPOS>MOLECULE
*****
   66    68     1     0     0
SMALL
bcc


@<TRIPOS>ATOM
      1 O            1.3090     0.8800     1.4250 oh         1 UNL      -0.595800
      2 C            2.4890     0.4790     0.7430 c3         1 UNL       0.095400
      3 C1           3.7320     1.2340     1.2610 c3         1 UNL       0.112100
      4 O1           4.9210     0.7660     0.5950 os         1 UNL      -0.449600
      5 C2           5.3350    -0.5400     0.9990 c3         1 UNL       0.304900
      6 O2           6.5850    -0.8670     0.3870 os         1 UNL      -0.414600
      7 C3           6.5300    -0.9640    -1.0300 c3         1 UNL       0.116400
      8 C4           7.9090    -1.3960    -1.5720 c3         1 UNL       0.086100
      9 O3           7.9230    -1.3400    -3.0090 os         1 UNL      -0.435600
     10 C5           7.2840    -2.4260    -3.6730 c3         1 UNL       0.333900
     11 O4           7.3930    -2.2980    -5.0780 os         1 UNL      -0.438600
     12 C6           6.8230    -1.1570    -5.7430 c3         1 UNL       0.284600
     13 C7           7.1760    -1.4400    -7.2410 c3         1 UNL       0.114400
     14 O5           6.7940    -0.4320    -8.1710 oh         1 UNL      -0.584800
     15 O6           7.4820     0.0820    -5.4050 os         1 UNL      -0.430600
     16 C8           6.4960     1.1390    -5.3210 c3         1 UNL       0.068100
     17 C9           7.0040     2.3900    -6.0380 c3         1 UNL       0.122400
     18 O7           7.1630     2.1600    -7.4350 oh         1 UNL      -0.618800
     19 C10          5.1470     0.5850    -5.8050 c3         1 UNL       0.096100
     20 O8           4.8040     0.8190    -7.1630 oh         1 UNL      -0.581800
     21 C11          5.3010    -0.9060    -5.5280 c3         1 UNL       0.097100
     22 O9           4.8530    -1.1110    -4.1740 oh         1 UNL      -0.566800
     23 C12          7.9300    -3.7670    -3.2530 c3         1 UNL       0.065100
     24 O10          9.3380    -3.8120    -3.5600 oh         1 UNL      -0.591800
     25 C13          7.7600    -3.9230    -1.7380 c3         1 UNL       0.079100
     26 O11          8.3120    -5.1740    -1.3170 oh         1 UNL      -0.571800
     27 C14          8.4480    -2.7430    -1.0290 c3         1 UNL       0.095100
     28 O12          8.3480    -2.8690     0.3880 oh         1 UNL      -0.580800
     29 C15          5.5730    -0.5990     2.5210 c3         1 UNL       0.092100
     30 O13          6.6430     0.2960     2.9130 oh         1 UNL      -0.588800
     31 C16          4.3190    -0.1680     3.2780 c3         1 UNL       0.084100
     32 O14          4.6070    -0.1760     4.6810 oh         1 UNL      -0.570800
     33 C17          3.9000     1.2330     2.8000 c3         1 UNL       0.091100
     34 O15          2.7410     1.7000     3.4880 oh         1 UNL      -0.563800
     35 H            0.5550     0.4640     0.9670 ho         1 UNL       0.413000
     36 H1           2.3670     0.6700    -0.3290 h1         1 UNL       0.033700
     37 H2           2.5890    -0.6030     0.8640 h1         1 UNL       0.033700
     38 H3           3.5980     2.2830     0.9650 h1         1 UNL       0.107700
     39 H4           4.5980    -1.2890     0.6960 h2         1 UNL       0.050700
     40 H5           6.2670     0.0090    -1.4620 h1         1 UNL       0.058200
     41 H6           5.7530    -1.6760    -1.3270 h1         1 UNL       0.058200
     42 H7           8.6160    -0.6250    -1.2310 h1         1 UNL       0.109700
     43 H8           6.2350    -2.5100    -3.3780 h2         1 UNL       0.072700
     44 H9           6.7530    -2.4000    -7.5610 h1         1 UNL       0.081700
     45 H10          8.2650    -1.5330    -7.3340 h1         1 UNL       0.081700
     46 H11          6.0320    -0.7750    -8.6770 ho         1 UNL       0.400000
     47 H12          6.4220     1.3720    -4.2520 h1         1 UNL       0.082700
     48 H13          7.9760     2.7010    -5.6420 h1         1 UNL       0.063200
     49 H14          6.2970     3.2150    -5.9140 h1         1 UNL       0.063200
     50 H15          7.7150     1.3560    -7.5380 ho         1 UNL       0.432000
     51 H16          4.3430     1.0320    -5.2090 h1         1 UNL       0.099700
     52 H17          5.6170     1.1020    -7.6390 ho         1 UNL       0.422000
     53 H18          4.6890    -1.5450    -6.1720 h1         1 UNL       0.091700
     54 H19          5.3600    -0.5010    -3.6090 ho         1 UNL       0.420000
     55 H20          7.4750    -4.6080    -3.7880 h1         1 UNL       0.101700
     56 H21          9.5590    -2.9660    -3.9970 ho         1 UNL       0.428000
     57 H22          6.6990    -3.9550    -1.4680 h1         1 UNL       0.082700
     58 H23          9.2310    -5.1890    -1.6510 ho         1 UNL       0.418000
     59 H24          9.5230    -2.7990    -1.2450 h1         1 UNL       0.080700
     60 H25          7.4440    -2.6460     0.6630 ho         1 UNL       0.427000
     61 H26          5.8970    -1.6000     2.8240 h1         1 UNL       0.099700
     62 H27          7.0430     0.6330     2.0870 ho         1 UNL       0.430000
     63 H28          3.5030    -0.8810     3.1240 h1         1 UNL       0.077700
     64 H29          5.4600     0.2950     4.7770 ho         1 UNL       0.420000
     65 H30          4.6980     1.9390     3.0640 h1         1 UNL       0.090700
     66 H31          1.9500     1.3840     3.0080 ho         1 UNL       0.417000
@<TRIPOS>BOND
     1     1     2 1   
     2     2     3 1   
     3     3     4 1   
     4     4     5 1   
     5     5     6 1   
     6     6     7 1   
     7     7     8 1   
     8     8     9 1   
     9     9    10 1   
    10    10    11 1   
    11    11    12 1   
    12    12    13 1   
    13    13    14 1   
    14    12    15 1   
    15    15    16 1   
    16    16    17 1   
    17    17    18 1   
    18    16    19 1   
    19    19    20 1   
    20    19    21 1   
    21    12    21 1   
    22    21    22 1   
    23    10    23 1   
    24    23    24 1   
    25    23    25 1   
    26    25    26 1   
    27    25    27 1   
    28     8    27 1   
    29    27    28 1   
    30     5    29 1   
    31    29    30 1   
    32    29    31 1   
    33    31    32 1   
    34    31    33 1   
    35     3    33 1   
    36    33    34 1   
    37     1    35 1   
    38     2    36 1   
    39     2    37 1   
    40     3    38 1   
    41     5    39 1   
    42     7    40 1   
    43     7    41 1   
    44     8    42 1   
    45    10    43 1   
    46    13    44 1   
    47    13    45 1   
    48    14    46 1   
    49    16    47 1   
    50    17    48 1   
    51    17    49 1   
    52    18    50 1   
    53    19    51 1   
    54    20    52 1   
    55    21    53 1   
    56    22    54 1   
    57    23    55 1   
    58    24    56 1   
    59    25    57 1   
    60    26    58 1   
    61    27    59 1   
    62    28    60 1   
    63    29    61 1   
    64    30    62 1   
    65    31    63 1   
    66    32    64 1   
    67    33    65 1   
    68    34    66 1   
@<TRIPOS>SUBSTRUCTURE
     1 UNL         1 TEMP              0 ****  ****    0 ROOT
