@<TRIPOS>MOLECULE
*****
 13 13 0 0 0
SMALL
GASTEIGER

@<TRIPOS>ATOM
      1 O           1.9212   -0.0270    0.1087 O.2     1  UNL1       -0.2758
      2 C           0.7046    0.0129    0.0644 C.2     1  UNL1        0.2131
      3 C          -0.1578    1.2394    0.2141 C.3     1  UNL1        0.0254
      4 C          -1.5204    0.7491   -0.2683 C.3     1  UNL1       -0.0291
      5 C          -1.5047   -0.7328    0.0529 C.3     1  UNL1        0.0120
      6 N          -0.1232   -1.0796   -0.0763 N.am    1  UNL1       -0.3153
      7 H           0.2158    2.0638   -0.3969 H       1  UNL1        0.0359
      8 H          -0.1860    1.5268    1.2693 H       1  UNL1        0.0359
      9 H          -1.5946    0.8923   -1.3541 H       1  UNL1        0.0285
     10 H          -2.3560    1.2786    0.1981 H       1  UNL1        0.0285
     11 H          -2.1083   -1.3269   -0.6377 H       1  UNL1        0.0462
     12 H          -1.8154   -0.9309    1.0837 H       1  UNL1        0.0462
     13 H           0.2588   -2.0172   -0.0783 H       1  UNL1        0.1487
@<TRIPOS>BOND
     1     1     2    2
     2     2     3    1
     3     3     4    1
     4     4     5    1
     5     5     6    1
     6     2     6   am
     7     3     7    1
     8     3     8    1
     9     4     9    1
    10     4    10    1
    11     5    11    1
    12     5    12    1
    13     6    13    1
