@<TRIPOS>MOLECULE
*****
   35    37     1     0     0
SMALL
bcc


@<TRIPOS>ATOM
      1 C            3.1680     1.6720     0.7280 c3         1 UNL       0.112700
      2 O            2.4940     0.7400    -0.1130 os         1 UNL      -0.324900
      3 C1           3.2410     0.1570    -1.1000 ca         1 UNL       0.134100
      4 C2           4.6030     0.3400    -1.2990 ca         1 UNL      -0.181500
      5 C3           5.2580    -0.2690    -2.3840 ca         1 UNL      -0.084000
      6 C4           4.5770    -1.1020    -3.2940 ca         1 UNL      -0.162300
      7 C5           5.2810    -1.7700    -4.5000 c3         1 UNL       0.299400
      8 O1           6.6780    -1.4340    -4.5480 oh         1 UNL      -0.586800
      9 C6           5.2070    -3.2890    -4.4330 ca         1 UNL      -0.331900
     10 C7           4.1400    -4.0130    -4.9440 ca         1 UNL       0.434700
     11 N            4.0520    -5.3610    -4.9340 nb         1 UNL      -0.691000
     12 C8           5.0810    -6.0020    -4.3770 ca         1 UNL       0.626900
     13 N1           6.1640    -5.4320    -3.8250 nb         1 UNL      -0.691000
     14 C9           6.1910    -4.0800    -3.8700 ca         1 UNL       0.434700
     15 C10          4.7780    -1.3320    -5.8800 cx         1 UNL      -0.122700
     16 C11          4.7420     0.1170    -6.3200 cx         1 UNL      -0.123400
     17 C12          3.4580    -0.6570    -6.2040 cx         1 UNL      -0.123400
     18 C13          3.2100    -1.3200    -3.0280 ca         1 UNL      -0.084000
     19 C14          2.5520    -0.6900    -1.9610 ca         1 UNL      -0.181500
     20 H            2.4420     2.0770     1.4390 h1         1 UNL       0.046367
     21 H1           3.5710     2.5100     0.1490 h1         1 UNL       0.046367
     22 H2           3.9570     1.1770     1.3040 h1         1 UNL       0.046367
     23 H3           5.1990     0.9620    -0.6360 ha         1 UNL       0.147500
     24 H4           6.3180    -0.0510    -2.4780 ha         1 UNL       0.143500
     25 H5           7.0190    -1.4030    -3.6450 ho         1 UNL       0.403000
     26 H6           3.2960    -3.5220    -5.4230 h4         1 UNL       0.032600
     27 H7           5.0450    -7.0860    -4.3740 h5         1 UNL       0.056100
     28 H8           7.0900    -3.6500    -3.4320 h4         1 UNL       0.032600
     29 H9           5.1860    -1.9940    -6.6450 hc         1 UNL       0.096700
     30 H10          5.1080     0.3390    -7.3180 hc         1 UNL       0.075700
     31 H11          4.9450     0.8890    -5.5920 hc         1 UNL       0.075700
     32 H12          2.9590    -0.9650    -7.1180 hc         1 UNL       0.075700
     33 H13          2.7730    -0.3310    -5.4340 hc         1 UNL       0.075700
     34 H14          2.6160    -1.9710    -3.6660 ha         1 UNL       0.143500
     35 H15          1.4880    -0.8620    -1.8100 ha         1 UNL       0.147500
@<TRIPOS>BOND
     1     1     2 1   
     2     2     3 1   
     3     3     4 ar  
     4     4     5 ar  
     5     5     6 ar  
     6     6     7 1   
     7     7     8 1   
     8     7     9 1   
     9     9    10 ar  
    10    10    11 ar  
    11    11    12 ar  
    12    12    13 ar  
    13    13    14 ar  
    14     9    14 ar  
    15     7    15 1   
    16    15    16 1   
    17    16    17 1   
    18    15    17 1   
    19     6    18 ar  
    20    18    19 ar  
    21     3    19 ar  
    22     1    20 1   
    23     1    21 1   
    24     1    22 1   
    25     4    23 1   
    26     5    24 1   
    27     8    25 1   
    28    10    26 1   
    29    12    27 1   
    30    14    28 1   
    31    15    29 1   
    32    16    30 1   
    33    16    31 1   
    34    17    32 1   
    35    17    33 1   
    36    18    34 1   
    37    19    35 1   
@<TRIPOS>SUBSTRUCTURE
     1 UNL         1 TEMP              0 ****  ****    0 ROOT
