@<TRIPOS>MOLECULE
*****
   21    25     1     0     0
SMALL
bcc


@<TRIPOS>ATOM
      1 O            2.7050     1.4970     1.2440 o          1 UNL      -0.408100
      2 C            2.8950     0.3960     0.7770 c          1 UNL       0.598100
      3 C1           2.0440    -0.4590    -0.1330 cy         1 UNL      -0.085600
      4 Cl           0.5210     0.3110    -0.6430 cl         1 UNL      -0.024400
      5 C2           2.9160    -1.1140    -1.2590 cy         1 UNL       0.032400
      6 Cl1          2.8490    -0.5470    -2.9330 cl         1 UNL      -0.022400
      7 C3           2.3100    -2.5030    -0.8850 cy         1 UNL       0.016400
      8 Cl2          0.8810    -3.0600    -1.8390 cl         1 UNL      -0.023400
      9 C4           3.4050    -3.5350    -0.7540 c3         1 UNL       0.149800
     10 Cl3          4.0380    -4.0720    -2.3060 cl         1 UNL      -0.072400
     11 Cl4          2.9020    -4.9390     0.2180 cl         1 UNL      -0.072400
     12 C5           4.3250    -2.5990     0.0090 cy         1 UNL       0.016400
     13 Cl5          5.9470    -3.3000     0.3480 cl         1 UNL      -0.023400
     14 C6           4.3470    -1.1410    -0.5320 cy         1 UNL       0.032400
     15 Cl6          5.7350    -0.4190    -1.3600 cl         1 UNL      -0.022400
     16 C7           4.0090    -0.5970     0.9040 cy         1 UNL      -0.085600
     17 Cl7          5.3430    -0.0190     1.9520 cl         1 UNL      -0.024400
     18 C8           3.4640    -2.0180     1.2000 cy         1 UNL       0.032400
     19 Cl8          3.6200    -2.7280     2.8120 cl         1 UNL      -0.022400
     20 C9           2.0010    -1.8910     0.5190 cy         1 UNL       0.032400
     21 Cl9          0.5850    -2.3760     1.4500 cl         1 UNL      -0.022400
@<TRIPOS>BOND
     1     1     2 2   
     2     2     3 1   
     3     3     4 1   
     4     3     5 1   
     5     5     6 1   
     6     5     7 1   
     7     7     8 1   
     8     7     9 1   
     9     9    10 1   
    10     9    11 1   
    11     9    12 1   
    12    12    13 1   
    13    12    14 1   
    14     5    14 1   
    15    14    15 1   
    16    14    16 1   
    17     2    16 1   
    18    16    17 1   
    19    16    18 1   
    20    12    18 1   
    21    18    19 1   
    22    18    20 1   
    23     3    20 1   
    24     7    20 1   
    25    20    21 1   
@<TRIPOS>SUBSTRUCTURE
     1 UNL         1 TEMP              0 ****  ****    0 ROOT
