@<TRIPOS>MOLECULE
*****
   42    45     1     0     0
SMALL
bcc


@<TRIPOS>ATOM
      1 C            1.0790     0.1610     1.5180 c3         1 UNL      -0.086100
      2 C1           2.0000    -0.2450     0.3470 c3         1 UNL      -0.146000
      3 C2           1.1170    -0.3910    -0.8970 c3         1 UNL      -0.062400
      4 C3           1.6750    -1.2610    -2.0080 c3         1 UNL      -0.072400
      5 C4           2.2340    -2.5870    -1.4730 c3         1 UNL      -0.008400
      6 C5           2.6380    -3.4410    -2.6540 ca         1 UNL      -0.106300
      7 C6           1.6450    -4.1460    -3.3570 ca         1 UNL      -0.088000
      8 C7           1.9520    -4.8350    -4.5280 ca         1 UNL      -0.214000
      9 C8           3.2600    -4.8290    -4.9910 ca         1 UNL       0.124100
     10 O            3.5990    -5.4590    -6.1520 oh         1 UNL      -0.499100
     11 C9           4.2650    -4.1700    -4.2890 ca         1 UNL      -0.161000
     12 C10          3.9620    -3.4640    -3.1130 ca         1 UNL      -0.033300
     13 C11          5.0780    -2.8070    -2.3400 c3         1 UNL      -0.037100
     14 C12          4.6230    -1.8140    -1.2600 c3         1 UNL      -0.074400
     15 C13          3.3930    -2.3310    -0.4900 c3         1 UNL      -0.048700
     16 C14          2.8840    -1.4690     0.7030 c3         1 UNL      -0.048700
     17 C15          4.0090    -0.8870     1.5740 c3         1 UNL      -0.079400
     18 C16          4.3110     0.5000     1.0100 c3         1 UNL      -0.187400
     19 C17          3.0560     0.8470     0.2460 c          1 UNL       0.579100
     20 O1           2.9000     1.9170    -0.3320 o          1 UNL      -0.525100
     21 H            0.3220    -0.6090     1.7080 hc         1 UNL       0.042700
     22 H1           0.5540     1.0970     1.2900 hc         1 UNL       0.042700
     23 H2           1.6290     0.3270     2.4500 hc         1 UNL       0.042700
     24 H3           0.8710     0.5930    -1.3150 hc         1 UNL       0.052700
     25 H4           0.1580    -0.8390    -0.6040 hc         1 UNL       0.052700
     26 H5           2.4340    -0.7040    -2.5690 hc         1 UNL       0.050200
     27 H6           0.8690    -1.4530    -2.7280 hc         1 UNL       0.050200
     28 H7           1.4440    -3.1190    -0.9230 hc         1 UNL       0.052700
     29 H8           0.6160    -4.1360    -3.0030 ha         1 UNL       0.132000
     30 H9           1.1630    -5.3540    -5.0610 ha         1 UNL       0.133000
     31 H10          2.7870    -5.7920    -6.5680 ho         1 UNL       0.418000
     32 H11          5.2830    -4.1980    -4.6700 ha         1 UNL       0.149000
     33 H12          5.7520    -2.2870    -3.0320 hc         1 UNL       0.053200
     34 H13          5.6580    -3.6040    -1.8580 hc         1 UNL       0.053200
     35 H14          4.4150    -0.8450    -1.7260 hc         1 UNL       0.046200
     36 H15          5.4730    -1.6540    -0.5880 hc         1 UNL       0.046200
     37 H16          3.6960    -3.2970    -0.0590 hc         1 UNL       0.050700
     38 H17          2.2890    -2.1520     1.3260 hc         1 UNL       0.055700
     39 H18          4.9000    -1.5210     1.6140 hc         1 UNL       0.049200
     40 H19          3.6600    -0.7880     2.6090 hc         1 UNL       0.049200
     41 H20          5.1620     0.4920     0.3260 hc         1 UNL       0.075200
     42 H21          4.4840     1.2210     1.8140 hc         1 UNL       0.075200
@<TRIPOS>BOND
     1     1     2 1   
     2     2     3 1   
     3     3     4 1   
     4     4     5 1   
     5     5     6 1   
     6     6     7 ar  
     7     7     8 ar  
     8     8     9 ar  
     9     9    10 1   
    10     9    11 ar  
    11    11    12 ar  
    12     6    12 ar  
    13    12    13 1   
    14    13    14 1   
    15    14    15 1   
    16     5    15 1   
    17    15    16 1   
    18     2    16 1   
    19    16    17 1   
    20    17    18 1   
    21    18    19 1   
    22     2    19 1   
    23    19    20 2   
    24     1    21 1   
    25     1    22 1   
    26     1    23 1   
    27     3    24 1   
    28     3    25 1   
    29     4    26 1   
    30     4    27 1   
    31     5    28 1   
    32     7    29 1   
    33     8    30 1   
    34    10    31 1   
    35    11    32 1   
    36    13    33 1   
    37    13    34 1   
    38    14    35 1   
    39    14    36 1   
    40    15    37 1   
    41    16    38 1   
    42    17    39 1   
    43    17    40 1   
    44    18    41 1   
    45    18    42 1   
@<TRIPOS>SUBSTRUCTURE
     1 UNL         1 TEMP              0 ****  ****    0 ROOT
