@<TRIPOS>MOLECULE
*****
   26    29     1     0     0
SMALL
bcc


@<TRIPOS>ATOM
      1 C           -3.5110    -0.0400     0.0060 ca         1 UNL      -0.127000
      2 C1          -2.8280     1.1760     0.0070 ca         1 UNL      -0.114000
      3 C2          -1.4250     1.2080     0.0010 ca         1 UNL      -0.033000
      4 C3          -0.7210     2.4200    -0.0030 ca         1 UNL      -0.115000
      5 C4           0.6760     2.4340    -0.0050 ca         1 UNL      -0.115000
      6 C5           1.4060     1.2370    -0.0030 ca         1 UNL      -0.033000
      7 C6           2.8090     1.2340    -0.0010 ca         1 UNL      -0.114000
      8 C7           3.5170     0.0330     0.0000 ca         1 UNL      -0.127000
      9 C8           2.8330    -1.1820    -0.0020 ca         1 UNL      -0.114000
     10 C9           1.4310    -1.2120    -0.0040 ca         1 UNL      -0.033000
     11 C10          0.7270    -2.4240    -0.0050 ca         1 UNL      -0.115000
     12 C11         -0.6700    -2.4390    -0.0060 ca         1 UNL      -0.115000
     13 C12         -1.3990    -1.2420    -0.0030 ca         1 UNL      -0.033000
     14 C13         -2.8020    -1.2400    -0.0010 ca         1 UNL      -0.114000
     15 C14         -0.7050    -0.0090    -0.0020 ca         1 UNL      -0.015000
     16 C15          0.7120     0.0050    -0.0030 ca         1 UNL      -0.015000
     17 H           -4.5980    -0.0510     0.0110 ha         1 UNL       0.133000
     18 H1          -3.4000     2.1010     0.0140 ha         1 UNL       0.134000
     19 H2          -1.2550     3.3670    -0.0040 ha         1 UNL       0.133000
     20 H3           1.1910     3.3920    -0.0080 ha         1 UNL       0.133000
     21 H4           3.3610     2.1710     0.0010 ha         1 UNL       0.134000
     22 H5           4.6040     0.0440     0.0030 ha         1 UNL       0.133000
     23 H6           3.4040    -2.1080    -0.0020 ha         1 UNL       0.134000
     24 H7           1.2610    -3.3710    -0.0060 ha         1 UNL       0.133000
     25 H8          -1.1850    -3.3970    -0.0070 ha         1 UNL       0.133000
     26 H9          -3.3540    -2.1780    -0.0030 ha         1 UNL       0.134000
@<TRIPOS>BOND
     1     1     2 ar  
     2     2     3 ar  
     3     3     4 ar  
     4     4     5 ar  
     5     5     6 ar  
     6     6     7 ar  
     7     7     8 ar  
     8     8     9 ar  
     9     9    10 ar  
    10    10    11 ar  
    11    11    12 ar  
    12    12    13 ar  
    13    13    14 ar  
    14     1    14 ar  
    15    13    15 ar  
    16     3    15 ar  
    17    15    16 ar  
    18     6    16 ar  
    19    10    16 ar  
    20     1    17 1   
    21     2    18 1   
    22     4    19 1   
    23     5    20 1   
    24     7    21 1   
    25     8    22 1   
    26     9    23 1   
    27    11    24 1   
    28    12    25 1   
    29    14    26 1   
@<TRIPOS>SUBSTRUCTURE
     1 UNL         1 TEMP              0 ****  ****    0 ROOT
