@<TRIPOS>MOLECULE
*****
   28    29     1     0     0
SMALL
bcc


@<TRIPOS>ATOM
      1 O            0.9440    -0.0510    -0.3480 o          1 UNL      -0.606100
      2 C            2.1340     0.0440    -0.0670 c          1 UNL       0.766100
      3 N            2.7550    -0.6700     0.9480 ns         1 UNL      -0.462100
      4 C1           2.1240    -1.5880     1.8210 ca         1 UNL       0.058600
      5 C2           0.8520    -2.1220     1.5950 ca         1 UNL      -0.156500
      6 C3           0.2630    -2.9840     2.5220 ca         1 UNL      -0.109000
      7 C4           0.9450    -3.3290     3.6840 ca         1 UNL      -0.150000
      8 C5           2.2220    -2.8220     3.9120 ca         1 UNL      -0.109000
      9 C6           2.8130    -1.9630     2.9810 ca         1 UNL      -0.156500
     10 N1           3.0230     0.9010    -0.6970 ns         1 UNL      -0.462100
     11 C7           2.7090     1.8610    -1.6870 ca         1 UNL       0.058600
     12 C8           1.4150     2.1060    -2.1560 ca         1 UNL      -0.156500
     13 C9           1.1770     3.0770    -3.1320 ca         1 UNL      -0.109000
     14 C10          2.2330     3.8210    -3.6480 ca         1 UNL      -0.150000
     15 C11          3.5260     3.5940    -3.1860 ca         1 UNL      -0.109000
     16 C12          3.7640     2.6190    -2.2120 ca         1 UNL      -0.156500
     17 H            3.6870    -0.3830     1.2030 hn         1 UNL       0.305500
     18 H1           0.2860    -1.8910     0.6980 ha         1 UNL       0.148000
     19 H2          -0.7330    -3.3770     2.3310 ha         1 UNL       0.134000
     20 H3           0.4780    -3.9900     4.4100 ha         1 UNL       0.133000
     21 H4           2.7530    -3.0890     4.8220 ha         1 UNL       0.134000
     22 H5           3.8050    -1.5730     3.1920 ha         1 UNL       0.148000
     23 H6           3.9980     0.8020    -0.4650 hn         1 UNL       0.305500
     24 H7           0.5540     1.5580    -1.7850 ha         1 UNL       0.148000
     25 H8           0.1620     3.2470    -3.4830 ha         1 UNL       0.134000
     26 H9           2.0440     4.5750    -4.4070 ha         1 UNL       0.133000
     27 H10          4.3520     4.1770    -3.5850 ha         1 UNL       0.134000
     28 H11          4.7840     2.4680    -1.8690 ha         1 UNL       0.148000
@<TRIPOS>BOND
     1     1     2 2   
     2     2     3 1   
     3     3     4 1   
     4     4     5 ar  
     5     5     6 ar  
     6     6     7 ar  
     7     7     8 ar  
     8     8     9 ar  
     9     4     9 ar  
    10     2    10 1   
    11    10    11 1   
    12    11    12 ar  
    13    12    13 ar  
    14    13    14 ar  
    15    14    15 ar  
    16    15    16 ar  
    17    11    16 ar  
    18     3    17 1   
    19     5    18 1   
    20     6    19 1   
    21     7    20 1   
    22     8    21 1   
    23     9    22 1   
    24    10    23 1   
    25    12    24 1   
    26    13    25 1   
    27    14    26 1   
    28    15    27 1   
    29    16    28 1   
@<TRIPOS>SUBSTRUCTURE
     1 UNL         1 TEMP              0 ****  ****    0 ROOT
