@<TRIPOS>MOLECULE
*****
   40    42     1     0     0
SMALL
bcc


@<TRIPOS>ATOM
      1 C            1.1430     0.0720     0.1860 c3         1 UNL      -0.085100
      2 C1           2.6530    -0.0790     0.3640 c3         1 UNL       0.170500
      3 C2           3.2330     1.1540     1.1070 c3         1 UNL      -0.042100
      4 C3           4.0240     0.5230     2.2000 ca         1 UNL      -0.096300
      5 C4           4.8110     1.1630     3.1480 ca         1 UNL      -0.101000
      6 C5           5.4460     0.3810     4.1080 ca         1 UNL      -0.138000
      7 C6           5.3000    -1.0140     4.0930 ca         1 UNL      -0.114000
      8 C7           4.5030    -1.6420     3.1260 ca         1 UNL      -0.131000
      9 C8           3.8500    -0.8640     2.1830 ca         1 UNL       0.046600
     10 N            2.9120    -1.2700     1.2060 nh         1 UNL      -0.348000
     11 N1           3.0500    -2.5750     0.6940 ns         1 UNL      -0.390300
     12 C9           2.6930    -2.9000    -0.6120 c          1 UNL       0.634700
     13 O            2.5060    -2.1170    -1.5410 o          1 UNL      -0.572100
     14 C10          2.4950    -4.3520    -0.8950 ca         1 UNL      -0.164600
     15 C11          1.6070    -4.7200    -1.9190 ca         1 UNL      -0.014000
     16 C12          1.4200    -6.0650    -2.2530 ca         1 UNL      -0.158000
     17 C13          2.1110    -7.0650    -1.5650 ca         1 UNL       0.141400
     18 Cl           1.8220    -8.6920    -2.0680 cl         1 UNL      -0.073400
     19 C14          2.9760    -6.7020    -0.5280 ca         1 UNL      -0.363500
     20 S            3.7760    -7.9240     0.4590 sy         1 UNL       1.523200
     21 N2           2.4690    -8.7770     1.0660 n8         1 UNL      -1.026700
     22 O1           4.5350    -8.8090    -0.3880 o          1 UNL      -0.649800
     23 O2           4.3580    -7.2710     1.6110 o          1 UNL      -0.649800
     24 C15          3.1820    -5.3490    -0.2020 ca         1 UNL      -0.002000
     25 H            0.9020     0.9750    -0.3820 hc         1 UNL       0.044033
     26 H1           0.6420     0.1340     1.1600 hc         1 UNL       0.044033
     27 H2           0.7100    -0.7850    -0.3370 hc         1 UNL       0.044033
     28 H3           3.1630    -0.1410    -0.6040 h1         1 UNL       0.077700
     29 H4           2.4530     1.8030     1.5190 hc         1 UNL       0.064700
     30 H5           3.8760     1.7400     0.4410 hc         1 UNL       0.064700
     31 H6           4.9150     2.2430     3.1540 ha         1 UNL       0.136000
     32 H7           6.0520     0.8540     4.8780 ha         1 UNL       0.133000
     33 H8           5.7980    -1.6110     4.8520 ha         1 UNL       0.136000
     34 H9           4.3860    -2.7180     3.1480 ha         1 UNL       0.136000
     35 H10          2.9160    -3.2760     1.4130 hn         1 UNL       0.320500
     36 H11          1.0570    -3.9570    -2.4690 ha         1 UNL       0.166000
     37 H12          0.7300    -6.3260    -3.0540 ha         1 UNL       0.161000
     38 H13          2.4430    -9.7200     0.6780 hn         1 UNL       0.453800
     39 H14          2.4310    -8.7230     2.0830 hn         1 UNL       0.453800
     40 H15          3.8910    -5.0850     0.5810 ha         1 UNL       0.170000
@<TRIPOS>BOND
     1     1     2 1   
     2     2     3 1   
     3     3     4 1   
     4     4     5 ar  
     5     5     6 ar  
     6     6     7 ar  
     7     7     8 ar  
     8     8     9 ar  
     9     4     9 ar  
    10     9    10 1   
    11     2    10 1   
    12    10    11 1   
    13    11    12 1   
    14    12    13 2   
    15    12    14 1   
    16    14    15 ar  
    17    15    16 ar  
    18    16    17 ar  
    19    17    18 1   
    20    17    19 ar  
    21    19    20 1   
    22    20    21 1   
    23    20    22 2   
    24    20    23 2   
    25    19    24 ar  
    26    14    24 ar  
    27     1    25 1   
    28     1    26 1   
    29     1    27 1   
    30     2    28 1   
    31     3    29 1   
    32     3    30 1   
    33     5    31 1   
    34     6    32 1   
    35     7    33 1   
    36     8    34 1   
    37    11    35 1   
    38    15    36 1   
    39    16    37 1   
    40    21    38 1   
    41    21    39 1   
    42    24    40 1   
@<TRIPOS>SUBSTRUCTURE
     1 UNL         1 TEMP              0 ****  ****    0 ROOT
