@<TRIPOS>MOLECULE
*****
   37    38     1     0     0
SMALL
bcc


@<TRIPOS>ATOM
      1 C            2.5340     0.2150     0.0070 c3         1 UNL      -0.099100
      2 C1           1.0630     0.0460     0.3970 c3         1 UNL      -0.088700
      3 C2           0.2770     1.2720    -0.1030 c3         1 UNL      -0.072400
      4 C3          -1.2040     1.1890     0.2540 c3         1 UNL      -0.080400
      5 C4          -1.8310    -0.1020    -0.2570 c3         1 UNL      -0.077400
      6 C5          -1.0660    -1.3280     0.2330 c3         1 UNL      -0.078400
      7 C6           0.4190    -1.2560    -0.1510 c3         1 UNL       0.089700
      8 N            1.0990    -2.4690     0.3030 ns         1 UNL      -0.539900
      9 C7           2.1320    -2.9990    -0.4390 c          1 UNL       0.754100
     10 O            2.4620    -2.5300    -1.5230 o          1 UNL      -0.621100
     11 N1           2.7050    -4.0960     0.1680 ns         1 UNL      -0.460100
     12 C8           3.8800    -4.7410    -0.2840 ca         1 UNL       0.061600
     13 C9           4.8130    -4.1090    -1.1130 ca         1 UNL      -0.159500
     14 C10          5.9440    -4.7890    -1.5680 ca         1 UNL      -0.109000
     15 C11          6.1630    -6.1080    -1.1860 ca         1 UNL      -0.153000
     16 C12          5.2600    -6.7390    -0.3310 ca         1 UNL      -0.109000
     17 C13          4.1270    -6.0550     0.1270 ca         1 UNL      -0.159500
     18 H            2.9110     1.1920     0.3290 hc         1 UNL       0.040700
     19 H1           2.6710     0.1490    -1.0780 hc         1 UNL       0.040700
     20 H2           3.1620    -0.5430     0.4840 hc         1 UNL       0.040700
     21 H3           1.0150     0.0270     1.4940 hc         1 UNL       0.042700
     22 H4           0.3800     1.3590    -1.1920 hc         1 UNL       0.045200
     23 H5           0.6960     2.1900     0.3270 hc         1 UNL       0.045200
     24 H6          -1.7330     2.0490    -0.1710 hc         1 UNL       0.040700
     25 H7          -1.3200     1.2480     1.3430 hc         1 UNL       0.040700
     26 H8          -1.8420    -0.0940    -1.3540 hc         1 UNL       0.044200
     27 H9          -2.8750    -0.1610     0.0720 hc         1 UNL       0.044200
     28 H10         -1.5180    -2.2310    -0.1940 hc         1 UNL       0.046200
     29 H11         -1.1680    -1.4140     1.3220 hc         1 UNL       0.046200
     30 H12          0.4750    -1.2310    -1.2470 h1         1 UNL       0.096700
     31 H13          1.0740    -2.6870     1.2880 hn         1 UNL       0.288500
     32 H14          2.1070    -4.6140     0.7910 hn         1 UNL       0.303500
     33 H15          4.6860    -3.0750    -1.4200 ha         1 UNL       0.148000
     34 H16          6.6450    -4.2830    -2.2270 ha         1 UNL       0.132500
     35 H17          7.0360    -6.6400    -1.5540 ha         1 UNL       0.132000
     36 H18          5.4340    -7.7680    -0.0300 ha         1 UNL       0.132500
     37 H19          3.4350    -6.5760     0.7830 ha         1 UNL       0.148000
@<TRIPOS>BOND
     1     1     2 1   
     2     2     3 1   
     3     3     4 1   
     4     4     5 1   
     5     5     6 1   
     6     6     7 1   
     7     2     7 1   
     8     7     8 1   
     9     8     9 1   
    10     9    10 2   
    11     9    11 1   
    12    11    12 1   
    13    12    13 ar  
    14    13    14 ar  
    15    14    15 ar  
    16    15    16 ar  
    17    16    17 ar  
    18    12    17 ar  
    19     1    18 1   
    20     1    19 1   
    21     1    20 1   
    22     2    21 1   
    23     3    22 1   
    24     3    23 1   
    25     4    24 1   
    26     4    25 1   
    27     5    26 1   
    28     5    27 1   
    29     6    28 1   
    30     6    29 1   
    31     7    30 1   
    32     8    31 1   
    33    11    32 1   
    34    13    33 1   
    35    14    34 1   
    36    15    35 1   
    37    16    36 1   
    38    17    37 1   
@<TRIPOS>SUBSTRUCTURE
     1 UNL         1 TEMP              0 ****  ****    0 ROOT
