@<TRIPOS>MOLECULE
*****
 33 35 0 0 0
SMALL
GASTEIGER

@<TRIPOS>ATOM
      1 C           2.5301    0.1842   -0.1557 C.3     1  UNL1       -0.0377
      2 C           1.0348    0.0973   -0.0106 C.ar    1  UNL1       -0.0265
      3 C           0.2915    1.2912    0.0064 C.ar    1  UNL1       -0.0569
      4 C          -1.1042    1.2708    0.0209 C.ar    1  UNL1       -0.0614
      5 C          -1.7817    0.0575    0.0080 C.ar    1  UNL1       -0.0598
      6 C          -1.0631   -1.1361    0.0096 C.ar    1  UNL1       -0.0374
      7 C           0.3441   -1.1324    0.0266 C.ar    1  UNL1        0.0540
      8 N           1.0181   -2.3920    0.0425 N.ar    1  UNL1       -0.2644
      9 C           1.7912   -2.8048    1.1168 C.ar    1  UNL1        0.1144
     10 C           1.9108   -1.9581    2.3697 C.3     1  UNL1       -0.0058
     11 N           2.4110   -3.9451    1.1610 N.ar    1  UNL1       -0.2335
     12 C           2.2471   -4.8454    0.1067 C.ar    1  UNL1        0.0782
     13 C           2.8662   -6.0954    0.1871 C.ar    1  UNL1       -0.0355
     14 C           2.6679   -7.0549   -0.8098 C.ar    1  UNL1       -0.0597
     15 C           1.8531   -6.7662   -1.9036 C.ar    1  UNL1       -0.0609
     16 C           1.2412   -5.5167   -1.9999 C.ar    1  UNL1       -0.0473
     17 C           1.4398   -4.5667   -0.9898 C.ar    1  UNL1        0.0652
     18 C           0.7818   -3.2507   -1.0422 C.ar    1  UNL1        0.2663
     19 O           0.0818   -2.9889   -2.0202 O.2     1  UNL1       -0.2666
     20 H           2.8571    1.2222   -0.2875 H       1  UNL1        0.0278
     21 H           2.8575   -0.3735   -1.0381 H       1  UNL1        0.0278
     22 H           3.0438   -0.1962    0.7271 H       1  UNL1        0.0278
     23 H           0.7975    2.2548   -0.0189 H       1  UNL1        0.0621
     24 H          -1.6618    2.2042    0.0155 H       1  UNL1        0.0618
     25 H          -2.8686    0.0369   -0.0115 H       1  UNL1        0.0618
     26 H          -1.6090   -2.0763   -0.0048 H       1  UNL1        0.0638
     27 H           1.2590   -1.0866    2.3940 H       1  UNL1        0.0308
     28 H           2.9512   -1.6395    2.4872 H       1  UNL1        0.0308
     29 H           1.6569   -2.5808    3.2346 H       1  UNL1        0.0308
     30 H           3.4929   -6.3274    1.0448 H       1  UNL1        0.0639
     31 H           3.1415   -8.0299   -0.7249 H       1  UNL1        0.0618
     32 H           1.6894   -7.5142   -2.6756 H       1  UNL1        0.0618
     33 H           0.6026   -5.2900   -2.8510 H       1  UNL1        0.0626
@<TRIPOS>BOND
     1     1     2    1
     2     2     3   ar
     3     3     4   ar
     4     4     5   ar
     5     5     6   ar
     6     6     7   ar
     7     2     7   ar
     8     7     8    1
     9     8     9   ar
    10     9    10    1
    11     9    11   ar
    12    11    12   ar
    13    12    13   ar
    14    13    14   ar
    15    14    15   ar
    16    15    16   ar
    17    16    17   ar
    18    12    17   ar
    19    17    18   ar
    20     8    18   ar
    21    18    19    2
    22     1    20    1
    23     1    21    1
    24     1    22    1
    25     3    23    1
    26     4    24    1
    27     5    25    1
    28     6    26    1
    29    10    27    1
    30    10    28    1
    31    10    29    1
    32    13    30    1
    33    14    31    1
    34    15    32    1
    35    16    33    1
