@<TRIPOS>MOLECULE
*****
 30 31 0 0 0
SMALL
GASTEIGER

@<TRIPOS>ATOM
      1 N           3.2606   -1.4306    2.1168 N.pl3   1  UNL1       -0.3044
      2 C           3.4000   -0.5695    0.9995 C.ar    1  UNL1        0.2859
      3 C           4.2800    0.5040    1.0339 C.ar    1  UNL1        0.0673
      4 C           4.4222    1.3044   -0.0931 C.ar    1  UNL1        0.1369
      5 N           5.4280    2.2738   -0.0970 N.pl3   1  UNL1       -0.3148
      6 C           5.8675    2.7193   -1.4228 C.3     1  UNL1        0.0135
      7 C           7.2594    3.3334   -1.2644 C.3     1  UNL1       -0.0371
      8 C           7.2578    4.4677   -0.2382 C.3     1  UNL1       -0.0502
      9 C           6.5996    4.0464    1.0784 C.3     1  UNL1       -0.0371
     10 C           5.2409    3.3796    0.8496 C.3     1  UNL1        0.0135
     11 N           3.6919    1.0885   -1.2060 N.ar    1  UNL1       -0.1556
     12 C           2.7844    0.0802   -1.2359 C.ar    1  UNL1        0.3863
     13 N           2.0348   -0.1131   -2.4007 N.pl3   1  UNL1       -0.2871
     14 N           2.6380   -0.7923   -0.1498 N.ar    1  UNL1       -0.1195
     15 O           1.8670   -1.8281   -0.2148 O.co2   1  UNL1       -0.6162
     16 H           4.1466   -1.8390    2.4012 H       1  UNL1        0.1478
     17 H           2.5950   -2.1620    1.8263 H       1  UNL1        0.1478
     18 H           4.8936    0.6746    1.9106 H       1  UNL1        0.0733
     19 H           5.1679    3.4518   -1.8447 H       1  UNL1        0.0464
     20 H           5.9459    1.8794   -2.1248 H       1  UNL1        0.0464
     21 H           7.6192    3.7030   -2.2307 H       1  UNL1        0.0280
     22 H           7.9595    2.5545   -0.9353 H       1  UNL1        0.0280
     23 H           6.7202    5.3282   -0.6521 H       1  UNL1        0.0266
     24 H           8.2869    4.7913   -0.0466 H       1  UNL1        0.0266
     25 H           6.4835    4.9181    1.7319 H       1  UNL1        0.0280
     26 H           7.2607    3.3402    1.5972 H       1  UNL1        0.0280
     27 H           4.5212    4.1071    0.4496 H       1  UNL1        0.0464
     28 H           4.8533    3.0410    1.8184 H       1  UNL1        0.0464
     29 H           2.5246    0.2207   -3.2193 H       1  UNL1        0.1494
     30 H           1.6658   -1.0629   -2.4130 H       1  UNL1        0.1494
@<TRIPOS>UNITY_ATOM_ATTR
14 1
charge 1
15 1
charge -1
@<TRIPOS>BOND
     1     1     2    1
     2     2     3   ar
     3     3     4   ar
     4     4     5    1
     5     5     6    1
     6     6     7    1
     7     7     8    1
     8     8     9    1
     9     9    10    1
    10     5    10    1
    11     4    11   ar
    12    11    12   ar
    13    12    13    1
    14    12    14   ar
    15     2    14   ar
    16    14    15    1
    17     1    16    1
    18     1    17    1
    19     3    18    1
    20     6    19    1
    21     6    20    1
    22     7    21    1
    23     7    22    1
    24     8    23    1
    25     8    24    1
    26     9    25    1
    27     9    26    1
    28    10    27    1
    29    10    28    1
    30    13    29    1
    31    13    30    1
