@<TRIPOS>MOLECULE
*****
   47    49     1     0     0
SMALL
bcc


@<TRIPOS>ATOM
      1 C            0.4360    -2.6230    -3.6590 c3         1 UNL      -0.054800
      2 C1          -0.5860    -1.7660    -2.9730 ca         1 UNL      -0.079300
      3 C2          -1.1980    -0.7150    -3.6630 ca         1 UNL      -0.118000
      4 C3          -2.0340     0.1730    -2.9860 ca         1 UNL      -0.135000
      5 C4          -2.2820     0.0190    -1.6210 ca         1 UNL       0.125100
      6 O           -2.9150     1.0740    -1.0390 os         1 UNL      -0.488500
      7 P           -4.0420     1.0630     0.1100 p5         1 UNL       1.644500
      8 O1          -4.7820    -0.2300     0.3060 o          1 UNL      -0.787300
      9 O2          -3.2710     1.6010     1.4210 os         1 UNL      -0.491500
     10 C5          -3.8560     1.8590     2.6350 ca         1 UNL       0.138100
     11 C6          -2.9790     2.2700     3.6410 ca         1 UNL      -0.143000
     12 C7          -3.4450     2.5480     4.9280 ca         1 UNL      -0.112000
     13 C8          -4.8040     2.4270     5.2090 ca         1 UNL      -0.137000
     14 C9          -5.7060     2.0380     4.2100 ca         1 UNL      -0.061300
     15 C10         -7.1800     1.9980     4.5080 c3         1 UNL      -0.055800
     16 C11         -5.2190     1.7480     2.9200 ca         1 UNL      -0.144000
     17 O3          -4.9300     2.3450    -0.3340 os         1 UNL      -0.489500
     18 C12         -5.7230     2.3840    -1.4510 ca         1 UNL       0.128100
     19 C13         -6.3810     1.2480    -1.9250 ca         1 UNL      -0.137000
     20 C14         -7.2810     1.3440    -2.9860 ca         1 UNL      -0.122000
     21 C15         -7.5370     2.5770    -3.5750 ca         1 UNL      -0.130000
     22 C16         -6.8540     3.7090    -3.1350 ca         1 UNL      -0.123000
     23 C17         -5.9230     3.6240    -2.0860 ca         1 UNL      -0.077300
     24 C18         -5.1310     4.8460    -1.7100 c3         1 UNL      -0.060800
     25 C19         -1.7680    -1.0790    -0.9430 ca         1 UNL      -0.135000
     26 C20         -0.9170    -1.9690    -1.6240 ca         1 UNL      -0.118000
     27 H            0.6960    -2.2220    -4.6470 hc         1 UNL       0.046367
     28 H1           0.0700    -3.6450    -3.7910 hc         1 UNL       0.046367
     29 H2           1.3620    -2.6410    -3.0710 hc         1 UNL       0.046367
     30 H3          -0.9930    -0.5480    -4.7180 ha         1 UNL       0.137500
     31 H4          -2.4650     1.0160    -3.5210 ha         1 UNL       0.152500
     32 H5          -1.9190     2.3820     3.4290 ha         1 UNL       0.151000
     33 H6          -2.7570     2.8520     5.7040 ha         1 UNL       0.137000
     34 H7          -5.1610     2.6430     6.2170 ha         1 UNL       0.135000
     35 H8          -7.3730     2.0820     5.5810 hc         1 UNL       0.047367
     36 H9          -7.6150     1.0510     4.1700 hc         1 UNL       0.047367
     37 H10         -7.6850     2.8280     4.0070 hc         1 UNL       0.047367
     38 H11         -5.9290     1.4390     2.1550 ha         1 UNL       0.153000
     39 H12         -6.2390     0.2730    -1.4730 ha         1 UNL       0.153000
     40 H13         -7.7950     0.4540    -3.3370 ha         1 UNL       0.138000
     41 H14         -8.2620     2.6550    -4.3800 ha         1 UNL       0.135000
     42 H15         -7.0540     4.6640    -3.6190 ha         1 UNL       0.136000
     43 H16         -5.4440     5.7180    -2.2980 hc         1 UNL       0.054700
     44 H17         -4.0700     4.6790    -1.9250 hc         1 UNL       0.054700
     45 H18         -5.2590     5.0920    -0.6550 hc         1 UNL       0.054700
     46 H19         -1.9630    -1.2360     0.1140 ha         1 UNL       0.152500
     47 H20         -0.4760    -2.8040    -1.0810 ha         1 UNL       0.137500
@<TRIPOS>BOND
     1     1     2 1   
     2     2     3 ar  
     3     3     4 ar  
     4     4     5 ar  
     5     5     6 1   
     6     6     7 1   
     7     7     8 2   
     8     7     9 1   
     9     9    10 1   
    10    10    11 ar  
    11    11    12 ar  
    12    12    13 ar  
    13    13    14 ar  
    14    14    15 1   
    15    14    16 ar  
    16    10    16 ar  
    17     7    17 1   
    18    17    18 1   
    19    18    19 ar  
    20    19    20 ar  
    21    20    21 ar  
    22    21    22 ar  
    23    22    23 ar  
    24    18    23 ar  
    25    23    24 1   
    26     5    25 ar  
    27    25    26 ar  
    28     2    26 ar  
    29     1    27 1   
    30     1    28 1   
    31     1    29 1   
    32     3    30 1   
    33     4    31 1   
    34    11    32 1   
    35    12    33 1   
    36    13    34 1   
    37    15    35 1   
    38    15    36 1   
    39    15    37 1   
    40    16    38 1   
    41    19    39 1   
    42    20    40 1   
    43    21    41 1   
    44    22    42 1   
    45    24    43 1   
    46    24    44 1   
    47    24    45 1   
    48    25    46 1   
    49    26    47 1   
@<TRIPOS>SUBSTRUCTURE
     1 UNL         1 TEMP              0 ****  ****    0 ROOT
