@<TRIPOS>MOLECULE
*****
   41    42     1     0     0
SMALL
bcc


@<TRIPOS>ATOM
      1 C           11.0820     4.3010    -2.8620 c3         1 UNL      -0.060800
      2 C1          10.1410     3.2310    -2.4080 ca         1 UNL      -0.084300
      3 C2          10.2350     1.9210    -2.8760 ca         1 UNL       0.090900
      4 F           11.1930     1.5970    -3.7570 f          1 UNL      -0.115400
      5 C3           9.3420     0.9300    -2.4480 ca         1 UNL       0.133400
      6 F1           9.4760    -0.3100    -2.9390 f          1 UNL      -0.107900
      7 C4           8.3350     1.2180    -1.5260 ca         1 UNL      -0.157300
      8 C5           7.3450     0.1880    -1.0470 c3         1 UNL       0.183700
      9 O            7.8930    -1.1390    -0.9750 os         1 UNL      -0.426900
     10 C6           8.6480    -1.3460     0.1310 c          1 UNL       0.665100
     11 O1           8.8330    -0.5190     1.0150 o          1 UNL      -0.531000
     12 C7           9.3270    -2.6730     0.1290 cx         1 UNL      -0.182700
     13 C8          10.5610    -2.7640     1.0070 cx         1 UNL      -0.083500
     14 C9          11.8070    -3.3370     0.4880 c2         1 UNL      -0.059200
     15 C10         12.7550    -3.9570     1.2220 c2         1 UNL      -0.105800
     16 Cl          12.5380    -4.1640     2.9360 cl         1 UNL      -0.041400
     17 C11         14.0320    -4.4950     0.6530 c3         1 UNL       0.682100
     18 F2          14.8350    -5.0850     1.5740 f          1 UNL      -0.228633
     19 F3          13.7940    -5.4250    -0.3090 f          1 UNL      -0.228633
     20 F4          14.7680    -3.5140     0.0670 f          1 UNL      -0.228633
     21 C12          9.3570    -3.6320     1.3190 cx         1 UNL      -0.038000
     22 C13          8.5920    -3.3140     2.5820 c3         1 UNL      -0.082100
     23 C14          9.4410    -5.1200     1.0500 c3         1 UNL      -0.082100
     24 C15          8.2350     2.5330    -1.0660 ca         1 UNL       0.133400
     25 F5           7.2680     2.8620    -0.2020 f          1 UNL      -0.107900
     26 C16          9.1270     3.5210    -1.4950 ca         1 UNL       0.090900
     27 F6           8.9980     4.7710    -1.0260 f          1 UNL      -0.115400
     28 H           11.8230     3.9170    -3.5710 hc         1 UNL       0.065367
     29 H1          11.6250     4.7150    -2.0060 hc         1 UNL       0.065367
     30 H2          10.5300     5.1050    -3.3600 hc         1 UNL       0.065367
     31 H3           6.4980     0.1610    -1.7390 h1         1 UNL       0.089700
     32 H4           6.9340     0.4640    -0.0660 h1         1 UNL       0.089700
     33 H5           9.3410    -3.1470    -0.8480 hc         1 UNL       0.118700
     34 H6          10.7440    -1.9200     1.6720 hc         1 UNL       0.123700
     35 H7          11.9890    -3.2110    -0.5790 ha         1 UNL       0.157000
     36 H8           8.4930    -2.2410     2.7670 hc         1 UNL       0.052867
     37 H9           9.1070    -3.7460     3.4460 hc         1 UNL       0.052867
     38 H10          7.5850    -3.7410     2.5360 hc         1 UNL       0.052867
     39 H11          9.9420    -5.3500     0.1050 hc         1 UNL       0.052867
     40 H12          8.4420    -5.5640     1.0120 hc         1 UNL       0.052867
     41 H13          9.9960    -5.6170     1.8540 hc         1 UNL       0.052867
@<TRIPOS>BOND
     1     1     2 1   
     2     2     3 ar  
     3     3     4 1   
     4     3     5 ar  
     5     5     6 1   
     6     5     7 ar  
     7     7     8 1   
     8     8     9 1   
     9     9    10 1   
    10    10    11 2   
    11    10    12 1   
    12    12    13 1   
    13    13    14 1   
    14    14    15 2   
    15    15    16 1   
    16    15    17 1   
    17    17    18 1   
    18    17    19 1   
    19    17    20 1   
    20    13    21 1   
    21    12    21 1   
    22    21    22 1   
    23    21    23 1   
    24     7    24 ar  
    25    24    25 1   
    26    24    26 ar  
    27     2    26 ar  
    28    26    27 1   
    29     1    28 1   
    30     1    29 1   
    31     1    30 1   
    32     8    31 1   
    33     8    32 1   
    34    12    33 1   
    35    13    34 1   
    36    14    35 1   
    37    22    36 1   
    38    22    37 1   
    39    22    38 1   
    40    23    39 1   
    41    23    40 1   
    42    23    41 1   
@<TRIPOS>SUBSTRUCTURE
     1 UNL         1 TEMP              0 ****  ****    0 ROOT
