@<TRIPOS>MOLECULE
*****
 35 36 0 0 0
SMALL
GASTEIGER

@<TRIPOS>ATOM
      1 C           3.3715   -1.3393   -0.7041 C.3     1  UNL1        0.0137
      2 C           2.6835   -0.2852    0.1371 C.2     1  UNL1        0.2307
      3 O           1.4710   -0.1285   -0.0544 O.2     1  UNL1       -0.2745
      4 N           3.4314    0.4391    1.0683 N.am    1  UNL1       -0.1508
      5 C           2.7635    1.0553    2.1436 C.ar    1  UNL1        0.2415
      6 O           1.4169    0.8275    2.2482 O.2     1  UNL1       -0.3377
      7 N           0.9043    1.3898    3.3872 N.ar    1  UNL1       -0.0810
      8 C           1.9326    1.9789    3.9933 C.ar    1  UNL1        0.0854
      9 C           1.7300    2.6151    5.3177 C.3     1  UNL1       -0.0188
     10 C           3.1357    1.8490    3.2309 C.ar    1  UNL1        0.0350
     11 C           4.4330    2.4612    3.6189 C.3     1  UNL1       -0.0330
     12 S           5.0925    0.5428    1.0096 S.O     1  UNL1        0.1543
     13 O           5.7800   -0.5791    0.2996 O.2     1  UNL1       -0.2313
     14 C           5.2151    1.9449   -0.1561 C.ar    1  UNL1        0.0583
     15 C           4.1444    2.7671   -0.5256 C.ar    1  UNL1       -0.0426
     16 C           4.3600    3.9067   -1.3102 C.ar    1  UNL1       -0.0399
     17 C           5.6334    4.2335   -1.7730 C.ar    1  UNL1        0.0246
     18 N           5.8651    5.4782   -2.3647 N.pl3   1  UNL1       -0.3580
     19 C           6.7024    3.4148   -1.4090 C.ar    1  UNL1       -0.0399
     20 C           6.4938    2.2716   -0.6287 C.ar    1  UNL1       -0.0426
     21 H           2.6111   -1.9100   -1.2463 H       1  UNL1        0.0323
     22 H           3.9003   -2.0499   -0.0690 H       1  UNL1        0.0323
     23 H           4.0295   -0.8754   -1.4438 H       1  UNL1        0.0323
     24 H           0.6729    2.8312    5.5040 H       1  UNL1        0.0294
     25 H           2.2845    3.5547    5.3979 H       1  UNL1        0.0294
     26 H           2.0794    1.9401    6.1068 H       1  UNL1        0.0294
     27 H           4.5023    2.5684    4.7069 H       1  UNL1        0.0280
     28 H           4.5202    3.4609    3.1805 H       1  UNL1        0.0280
     29 H           5.2992    1.8722    3.3206 H       1  UNL1        0.0280
     30 H           3.1240    2.5733   -0.2094 H       1  UNL1        0.0630
     31 H           3.5134    4.5487   -1.5410 H       1  UNL1        0.0636
     32 H           5.0558    5.8827   -2.8234 H       1  UNL1        0.1423
     33 H           6.7012    5.5221   -2.9400 H       1  UNL1        0.1423
     34 H           7.7149    3.6701   -1.7121 H       1  UNL1        0.0636
     35 H           7.3513    1.6523   -0.3678 H       1  UNL1        0.0630
@<TRIPOS>BOND
     1     1     2    1
     2     2     3    2
     3     2     4   am
     4     4     5    1
     5     5     6   ar
     6     6     7   ar
     7     7     8   ar
     8     8     9    1
     9     8    10   ar
    10     5    10   ar
    11    10    11    1
    12     4    12    1
    13    12    13    2
    14    12    14    1
    15    14    15   ar
    16    15    16   ar
    17    16    17   ar
    18    17    18    1
    19    17    19   ar
    20    19    20   ar
    21    14    20   ar
    22     1    21    1
    23     1    22    1
    24     1    23    1
    25     9    24    1
    26     9    25    1
    27     9    26    1
    28    11    27    1
    29    11    28    1
    30    11    29    1
    31    15    30    1
    32    16    31    1
    33    18    32    1
    34    18    33    1
    35    19    34    1
    36    20    35    1
