@<TRIPOS>MOLECULE
*****
   74    80     1     0     0
SMALL
bcc


@<TRIPOS>ATOM
      1 C            1.5140     0.2630    -1.9500 c3         1 UNL       0.112700
      2 O            2.8000     0.3180    -1.3500 os         1 UNL      -0.324900
      3 C1           3.2220     1.5200    -0.8500 ca         1 UNL       0.090100
      4 C2           2.5090     2.7230    -0.9200 ca         1 UNL      -0.186000
      5 C3           2.9020     3.9020    -0.2400 ca         1 UNL      -0.072300
      6 C4           1.8850     5.1130    -0.1420 c3         1 UNL       0.050900
      7 C5           2.0590     6.0250     1.0770 ca         1 UNL      -0.077300
      8 C6           1.7250     7.3760     1.1030 ca         1 UNL      -0.104000
      9 C7           2.2670     8.1070     2.1200 ca         1 UNL       0.061100
     10 C8           3.0540     7.5000     3.0640 ca         1 UNL       0.056100
     11 C9           2.9990     6.1250     3.2500 ca         1 UNL      -0.088000
     12 C10          2.2440     5.4150     2.3330 ca         1 UNL      -0.087300
     13 C11          1.5130     4.0480     2.4510 c3         1 UNL       0.205400
     14 O1           1.0900     3.8130     3.8170 os         1 UNL      -0.439600
     15 C12          0.4140     2.5660     3.9430 c3         1 UNL       0.295900
     16 O2           1.2250     1.4640     3.5130 os         1 UNL      -0.434600
     17 C13          2.2820     1.2020     4.4420 c3         1 UNL       0.072100
     18 C14          3.1970     0.0930     3.9280 c3         1 UNL       0.136400
     19 O3           4.1510    -0.2880     4.9160 os         1 UNL      -0.429600
     20 C15          3.5680    -0.6210     6.1770 c3         1 UNL       0.325900
     21 C16          2.8450    -1.9690     6.1540 c3         1 UNL      -0.148100
     22 O4           2.7520     0.4330     6.6860 os         1 UNL      -0.405600
     23 C17          1.7020     0.7640     5.7860 c3         1 UNL       0.074100
     24 C18          0.8060     1.8760     6.3420 c3         1 UNL       0.127100
     25 O5           0.1220     1.4260     7.5210 oh         1 UNL      -0.565800
     26 C19         -0.2360     2.2480     5.2930 c3         1 UNL       0.087100
     27 O6          -1.1220     1.1010     5.1220 oh         1 UNL      -0.586800
     28 C20          0.2390     4.0360     1.4510 c3         1 UNL      -0.119700
     29 C21         -0.2710     2.6710     0.9740 c3         1 UNL       0.116400
     30 O7          -0.7150     2.7740    -0.3730 os         1 UNL      -0.400900
     31 C22         -0.2650     3.9480    -0.9200 c          1 UNL       0.726600
     32 O8          -0.3800     4.2380    -2.0830 o          1 UNL      -0.575500
     33 C23          0.4150     4.7590     0.1160 c3         1 UNL      -0.136700
     34 O9           3.7550     8.4280     3.7780 os         1 UNL      -0.328900
     35 C24          3.3020     9.6560     3.1500 c3         1 UNL       0.320200
     36 O10          2.1870     9.4540     2.2610 os         1 UNL      -0.330900
     37 C25          4.2060     3.8780     0.3380 ca         1 UNL      -0.186000
     38 C26          4.9810     2.6950     0.3370 ca         1 UNL       0.090100
     39 O11          6.2400     2.4940     0.8410 os         1 UNL      -0.324900
     40 C27          6.9600     3.5760     1.3960 c3         1 UNL       0.112700
     41 C28          4.4550     1.5240    -0.2210 ca         1 UNL       0.095100
     42 O12          5.1830     0.3590    -0.1590 oh         1 UNL      -0.469100
     43 H            1.3210    -0.7760    -2.2310 h1         1 UNL       0.048200
     44 H1           1.4880     0.8690    -2.8600 h1         1 UNL       0.048200
     45 H2           0.7300     0.5640    -1.2470 h1         1 UNL       0.048200
     46 H3           1.6150     2.7220    -1.5220 ha         1 UNL       0.154500
     47 H4           2.0100     5.7030    -1.0560 hc         1 UNL       0.080700
     48 H5           1.0750     7.8410     0.3650 ha         1 UNL       0.163000
     49 H6           3.4980     5.6530     4.0870 ha         1 UNL       0.171000
     50 H7           2.2300     3.2640     2.1910 h1         1 UNL       0.085700
     51 H8          -0.4540     2.5940     3.3000 h2         1 UNL       0.090700
     52 H9           2.9000     2.1020     4.5750 h1         1 UNL       0.082700
     53 H10          3.7450     0.4430     3.0460 h1         1 UNL       0.063200
     54 H11          2.6240    -0.7800     3.5960 h1         1 UNL       0.063200
     55 H12          4.4010    -0.7150     6.8800 h2         1 UNL       0.111700
     56 H13          2.0320    -1.9980     5.4220 hc         1 UNL       0.055033
     57 H14          2.4040    -2.1840     7.1310 hc         1 UNL       0.055033
     58 H15          3.5380    -2.7690     5.8780 hc         1 UNL       0.055033
     59 H16          1.0640    -0.1200     5.6570 h1         1 UNL       0.044700
     60 H17          1.4020     2.7510     6.6220 h1         1 UNL       0.109700
     61 H18         -0.6460     0.9030     7.2120 ho         1 UNL       0.408000
     62 H19         -0.8680     3.0730     5.6390 h1         1 UNL       0.114700
     63 H20         -0.7480     0.5430     4.4040 ho         1 UNL       0.408000
     64 H21         -0.5830     4.5340     1.9850 hc         1 UNL       0.086700
     65 H22         -1.1490     2.3470     1.5320 h1         1 UNL       0.069200
     66 H23          0.4960     1.8920     1.0300 h1         1 UNL       0.069200
     67 H24         -0.1960     5.6750     0.1480 hc         1 UNL       0.097700
     68 H25          4.1060    10.1010     2.5460 h2         1 UNL       0.076200
     69 H26          3.0240    10.3680     3.9320 h2         1 UNL       0.076200
     70 H27          4.5990     4.7700     0.8190 ha         1 UNL       0.154500
     71 H28          8.0160     3.2780     1.4230 h1         1 UNL       0.048200
     72 H29          6.6370     3.7470     2.4260 h1         1 UNL       0.048200
     73 H30          6.8920     4.4820     0.7920 h1         1 UNL       0.048200
     74 H31          6.0300     0.6020     0.2610 ho         1 UNL       0.431000
@<TRIPOS>BOND
     1     1     2 1   
     2     2     3 1   
     3     3     4 ar  
     4     4     5 ar  
     5     5     6 1   
     6     6     7 1   
     7     7     8 ar  
     8     8     9 ar  
     9     9    10 ar  
    10    10    11 ar  
    11    11    12 ar  
    12     7    12 ar  
    13    12    13 1   
    14    13    14 1   
    15    14    15 1   
    16    15    16 1   
    17    16    17 1   
    18    17    18 1   
    19    18    19 1   
    20    19    20 1   
    21    20    21 1   
    22    20    22 1   
    23    22    23 1   
    24    17    23 1   
    25    23    24 1   
    26    24    25 1   
    27    24    26 1   
    28    15    26 1   
    29    26    27 1   
    30    13    28 1   
    31    28    29 1   
    32    29    30 1   
    33    30    31 1   
    34    31    32 2   
    35    31    33 1   
    36     6    33 1   
    37    28    33 1   
    38    10    34 1   
    39    34    35 1   
    40    35    36 1   
    41     9    36 1   
    42     5    37 ar  
    43    37    38 ar  
    44    38    39 1   
    45    39    40 1   
    46    38    41 ar  
    47     3    41 ar  
    48    41    42 1   
    49     1    43 1   
    50     1    44 1   
    51     1    45 1   
    52     4    46 1   
    53     6    47 1   
    54     8    48 1   
    55    11    49 1   
    56    13    50 1   
    57    15    51 1   
    58    17    52 1   
    59    18    53 1   
    60    18    54 1   
    61    20    55 1   
    62    21    56 1   
    63    21    57 1   
    64    21    58 1   
    65    23    59 1   
    66    24    60 1   
    67    25    61 1   
    68    26    62 1   
    69    27    63 1   
    70    28    64 1   
    71    29    65 1   
    72    29    66 1   
    73    33    67 1   
    74    35    68 1   
    75    35    69 1   
    76    37    70 1   
    77    40    71 1   
    78    40    72 1   
    79    40    73 1   
    80    42    74 1   
@<TRIPOS>SUBSTRUCTURE
     1 UNL         1 TEMP              0 ****  ****    0 ROOT
