@<TRIPOS>MOLECULE
*****
    9     9     1     0     0
SMALL
bcc


@<TRIPOS>ATOM
      1 C            1.3870    -0.7060     0.0020 cc         1 UNL      -0.157000
      2 C1           1.3830     0.7200     0.0010 cc         1 UNL      -0.157000
      3 C2           0.1040     1.2320    -0.0050 cd         1 UNL      -0.169100
      4 S           -1.0830    -0.0010    -0.0100 ss         1 UNL       0.008200
      5 C3           0.1120    -1.2260    -0.0050 cd         1 UNL      -0.169100
      6 H            2.2810    -1.3180     0.0060 ha         1 UNL       0.152000
      7 H1           2.2720     1.3380     0.0050 ha         1 UNL       0.152000
      8 H2          -0.1940     2.2720    -0.0070 h4         1 UNL       0.169000
      9 H3          -0.1790    -2.2680    -0.0070 h4         1 UNL       0.169000
@<TRIPOS>BOND
     1     1     2 1   
     2     2     3 2   
     3     3     4 1   
     4     4     5 1   
     5     1     5 2   
     6     1     6 1   
     7     2     7 1   
     8     3     8 1   
     9     5     9 1   
@<TRIPOS>SUBSTRUCTURE
     1 UNL         1 TEMP              0 ****  ****    0 ROOT
