@<TRIPOS>MOLECULE
*****
 38 41 0 0 0
SMALL
GASTEIGER

@<TRIPOS>ATOM
      1 O           2.2169    1.3221   -0.1202 O.2     1  UNL1       -0.2449
      2 C           1.4795    0.3596   -0.0859 C.2     1  UNL1        0.3411
      3 O           1.8531   -0.9516   -0.0514 O.3     1  UNL1       -0.4400
      4 C           0.7154   -1.8681   -0.0320 C.3     1  UNL1        0.1895
      5 C           0.8027   -2.6711   -1.3480 C.ar    1  UNL1        0.0051
      6 C           1.9425   -3.4616   -1.6083 C.ar    1  UNL1       -0.0507
      7 C           1.9830   -4.3369   -2.6993 C.ar    1  UNL1       -0.0198
      8 C           0.8921   -4.4141   -3.5558 C.ar    1  UNL1        0.1169
      9 O           0.8564   -5.2941   -4.5951 O.3     1  UNL1       -0.5068
     10 C          -0.2101   -3.5966   -3.3697 C.ar    1  UNL1       -0.0198
     11 C          -0.2512   -2.7247   -2.2808 C.ar    1  UNL1       -0.0507
     12 C           0.7946   -2.7556    1.2288 C.ar    1  UNL1        0.0051
     13 C           1.3536   -2.2727    2.4293 C.ar    1  UNL1       -0.0507
     14 C           1.3881   -3.0655    3.5829 C.ar    1  UNL1       -0.0198
     15 C           0.8671   -4.3530    3.5472 C.ar    1  UNL1        0.1169
     16 O           0.8831   -5.1615    4.6443 O.3     1  UNL1       -0.5068
     17 C           0.3047   -4.8555    2.3837 C.ar    1  UNL1       -0.0198
     18 C           0.2554   -4.0590    1.2375 C.ar    1  UNL1       -0.0507
     19 C          -0.4387   -0.9138    0.0557 C.ar    1  UNL1        0.0188
     20 C          -1.8025   -1.1585    0.1725 C.ar    1  UNL1       -0.0533
     21 C          -2.6815   -0.0734    0.1495 C.ar    1  UNL1       -0.0613
     22 C          -2.1925    1.2386    0.0494 C.ar    1  UNL1       -0.0610
     23 C          -0.8199    1.4783   -0.0235 C.ar    1  UNL1       -0.0474
     24 C           0.0264    0.3834   -0.0218 C.ar    1  UNL1        0.0667
     25 H           2.7958   -3.4259   -0.9313 H       1  UNL1        0.0623
     26 H           2.8607   -4.9574   -2.8496 H       1  UNL1        0.0654
     27 H           1.6512   -5.8505   -4.5568 H       1  UNL1        0.2921
     28 H          -1.0510   -3.6492   -4.0567 H       1  UNL1        0.0654
     29 H          -1.1414   -2.1118   -2.1773 H       1  UNL1        0.0623
     30 H           1.7679   -1.2673    2.4824 H       1  UNL1        0.0623
     31 H           1.8226   -2.6606    4.4918 H       1  UNL1        0.0654
     32 H           1.2934   -4.6790    5.3803 H       1  UNL1        0.2921
     33 H          -0.0984   -5.8644    2.3662 H       1  UNL1        0.0654
     34 H          -0.2049   -4.4803    0.3456 H       1  UNL1        0.0623
     35 H          -2.1862   -2.1735    0.2436 H       1  UNL1        0.0622
     36 H          -3.7548   -0.2479    0.2008 H       1  UNL1        0.0618
     37 H          -2.8915    2.0723    0.0306 H       1  UNL1        0.0618
     38 H          -0.4255    2.4883   -0.0864 H       1  UNL1        0.0626
@<TRIPOS>BOND
     1     1     2    2
     2     2     3    1
     3     3     4    1
     4     4     5    1
     5     5     6   ar
     6     6     7   ar
     7     7     8   ar
     8     8     9    1
     9     8    10   ar
    10    10    11   ar
    11     5    11   ar
    12     4    12    1
    13    12    13   ar
    14    13    14   ar
    15    14    15   ar
    16    15    16    1
    17    15    17   ar
    18    17    18   ar
    19    12    18   ar
    20     4    19    1
    21    19    20   ar
    22    20    21   ar
    23    21    22   ar
    24    22    23   ar
    25    23    24   ar
    26    19    24   ar
    27     2    24    1
    28     6    25    1
    29     7    26    1
    30     9    27    1
    31    10    28    1
    32    11    29    1
    33    13    30    1
    34    14    31    1
    35    16    32    1
    36    17    33    1
    37    18    34    1
    38    20    35    1
    39    21    36    1
    40    22    37    1
    41    23    38    1
