@<TRIPOS>MOLECULE
*****
   36    40     1     0     0
SMALL
bcc


@<TRIPOS>ATOM
      1 C           -5.7500     0.3810     0.0390 ca         1 UNL      -0.126000
      2 C1          -5.0980     1.6000    -0.0470 ca         1 UNL      -0.127000
      3 C2          -3.7010     1.6420    -0.0770 ca         1 UNL      -0.118000
      4 C3          -2.9000     0.4700    -0.0250 ca         1 UNL      -0.019000
      5 C4          -3.5980    -0.7580     0.0430 ca         1 UNL      -0.036000
      6 C5          -5.0030    -0.7920     0.0820 ca         1 UNL      -0.117000
      7 C6          -2.8850    -1.9510     0.0730 ca         1 UNL      -0.116000
      8 C7          -1.4910    -1.9490     0.0350 ca         1 UNL      -0.117000
      9 C8          -0.7260    -0.7620    -0.0160 ca         1 UNL      -0.017000
     10 C9          -1.4540     0.4600    -0.0340 ca         1 UNL      -0.018000
     11 C10         -0.7000     1.6430    -0.0510 ca         1 UNL      -0.118000
     12 C11          0.6950     1.6440    -0.0340 ca         1 UNL      -0.118000
     13 C12          1.4500     0.4610    -0.0210 ca         1 UNL      -0.018000
     14 C13          2.8960     0.4740     0.0050 ca         1 UNL      -0.019000
     15 C14          3.6950     1.6470     0.0770 ca         1 UNL      -0.118000
     16 C15          5.0920     1.6070     0.1000 ca         1 UNL      -0.127000
     17 C16          5.7470     0.3880     0.0430 ca         1 UNL      -0.126000
     18 C17          5.0030    -0.7850    -0.0240 ca         1 UNL      -0.117000
     19 C18          3.5970    -0.7530    -0.0350 ca         1 UNL      -0.036000
     20 C19          2.8870    -1.9470    -0.0820 ca         1 UNL      -0.116000
     21 C20          1.4920    -1.9470    -0.0730 ca         1 UNL      -0.117000
     22 C21          0.7250    -0.7610    -0.0360 ca         1 UNL      -0.017000
     23 H           -6.8350     0.3390     0.0690 ha         1 UNL       0.133000
     24 H1          -5.6700     2.5230    -0.0920 ha         1 UNL       0.133000
     25 H2          -3.2480     2.6260    -0.1490 ha         1 UNL       0.132000
     26 H3          -5.5290    -1.7420     0.1480 ha         1 UNL       0.133000
     27 H4          -3.4030    -2.9060     0.1250 ha         1 UNL       0.134000
     28 H5          -1.0150    -2.9250     0.0650 ha         1 UNL       0.133000
     29 H6          -1.1800     2.6170    -0.0620 ha         1 UNL       0.134000
     30 H7           1.1740     2.6190    -0.0410 ha         1 UNL       0.134000
     31 H8           3.2370     2.6310     0.1310 ha         1 UNL       0.132000
     32 H9           5.6600     2.5310     0.1630 ha         1 UNL       0.133000
     33 H10          6.8330     0.3470     0.0570 ha         1 UNL       0.133000
     34 H11          5.5320    -1.7360    -0.0640 ha         1 UNL       0.133000
     35 H12          3.4070    -2.9020    -0.1170 ha         1 UNL       0.134000
     36 H13          1.0180    -2.9240    -0.1070 ha         1 UNL       0.133000
@<TRIPOS>BOND
     1     1     2 ar  
     2     2     3 ar  
     3     3     4 ar  
     4     4     5 ar  
     5     5     6 ar  
     6     1     6 ar  
     7     5     7 ar  
     8     7     8 ar  
     9     8     9 ar  
    10     9    10 ar  
    11     4    10 ar  
    12    10    11 ar  
    13    11    12 ar  
    14    12    13 ar  
    15    13    14 ar  
    16    14    15 ar  
    17    15    16 ar  
    18    16    17 ar  
    19    17    18 ar  
    20    18    19 ar  
    21    14    19 ar  
    22    19    20 ar  
    23    20    21 ar  
    24    21    22 ar  
    25    13    22 ar  
    26     9    22 ar  
    27     1    23 1   
    28     2    24 1   
    29     3    25 1   
    30     6    26 1   
    31     7    27 1   
    32     8    28 1   
    33    11    29 1   
    34    12    30 1   
    35    15    31 1   
    36    16    32 1   
    37    17    33 1   
    38    18    34 1   
    39    20    35 1   
    40    21    36 1   
@<TRIPOS>SUBSTRUCTURE
     1 UNL         1 TEMP              0 ****  ****    0 ROOT
