@<TRIPOS>MOLECULE
*****
 66 68 0 0 0
SMALL
GASTEIGER

@<TRIPOS>ATOM
      1 O           1.3089    0.8798    1.4249 O.3     1  UNL1       -0.3924
      2 C           2.4890    0.4790    0.7427 C.3     1  UNL1        0.0730
      3 C           3.7321    1.2344    1.2606 C.3     1  UNL1        0.1130
      4 O           4.9209    0.7661    0.5953 O.3     1  UNL1       -0.3405
      5 C           5.3345   -0.5405    0.9992 C.3     1  UNL1        0.1880
      6 O           6.5851   -0.8673    0.3872 O.3     1  UNL1       -0.3460
      7 C           6.5296   -0.9639   -1.0299 C.3     1  UNL1        0.0796
      8 C           7.9092   -1.3959   -1.5723 C.3     1  UNL1        0.1134
      9 O           7.9230   -1.3397   -3.0089 O.3     1  UNL1       -0.3404
     10 C           7.2837   -2.4264   -3.6730 C.3     1  UNL1        0.1912
     11 O           7.3928   -2.2982   -5.0782 O.3     1  UNL1       -0.3125
     12 C           6.8232   -1.1567   -5.7428 C.3     1  UNL1        0.2252
     13 C           7.1757   -1.4398   -7.2413 C.3     1  UNL1        0.1009
     14 O           6.7938   -0.4320   -8.1705 O.3     1  UNL1       -0.3896
     15 O           7.4825    0.0820   -5.4048 O.3     1  UNL1       -0.3362
     16 C           6.4956    1.1393   -5.3209 C.3     1  UNL1        0.1134
     17 C           7.0038    2.3897   -6.0382 C.3     1  UNL1        0.0730
     18 O           7.1633    2.1605   -7.4353 O.3     1  UNL1       -0.3924
     19 C           5.1466    0.5847   -5.8054 C.3     1  UNL1        0.1145
     20 O           4.8040    0.8188   -7.1630 O.3     1  UNL1       -0.3864
     21 C           5.3015   -0.9058   -5.5278 C.3     1  UNL1        0.1395
     22 O           4.8531   -1.1108   -4.1741 O.3     1  UNL1       -0.3837
     23 C           7.9297   -3.7674   -3.2530 C.3     1  UNL1        0.1342
     24 O           9.3382   -3.8116   -3.5596 O.3     1  UNL1       -0.3841
     25 C           7.7603   -3.9231   -1.7384 C.3     1  UNL1        0.1141
     26 O           8.3125   -5.1740   -1.3175 O.3     1  UNL1       -0.3864
     27 C           8.4482   -2.7430   -1.0287 C.3     1  UNL1        0.1119
     28 O           8.3479   -2.8695    0.3883 O.3     1  UNL1       -0.3865
     29 C           5.5726   -0.5992    2.5214 C.3     1  UNL1        0.1341
     30 O           6.6427    0.2960    2.9127 O.3     1  UNL1       -0.3841
     31 C           4.3187   -0.1683    3.2779 C.3     1  UNL1        0.1141
     32 O           4.6070   -0.1758    4.6811 O.3     1  UNL1       -0.3864
     33 C           3.9002    1.2334    2.7996 C.3     1  UNL1        0.1119
     34 O           2.7406    1.7002    3.4881 O.3     1  UNL1       -0.3865
     35 H           0.5547    0.4639    0.9673 H       1  UNL1        0.2095
     36 H           2.3673    0.6703   -0.3294 H       1  UNL1        0.0584
     37 H           2.5891   -0.6025    0.8644 H       1  UNL1        0.0584
     38 H           3.5978    2.2831    0.9652 H       1  UNL1        0.0647
     39 H           4.5977   -1.2894    0.6961 H       1  UNL1        0.0937
     40 H           6.2666    0.0094   -1.4624 H       1  UNL1        0.0587
     41 H           5.7529   -1.6756   -1.3267 H       1  UNL1        0.0587
     42 H           8.6157   -0.6251   -1.2311 H       1  UNL1        0.0647
     43 H           6.2347   -2.5097   -3.3776 H       1  UNL1        0.0939
     44 H           6.7528   -2.3995   -7.5608 H       1  UNL1        0.0612
     45 H           8.2646   -1.5329   -7.3344 H       1  UNL1        0.0612
     46 H           6.0323   -0.7748   -8.6772 H       1  UNL1        0.2096
     47 H           6.4218    1.3716   -4.2516 H       1  UNL1        0.0647
     48 H           7.9760    2.7006   -5.6416 H       1  UNL1        0.0584
     49 H           6.2967    3.2154   -5.9136 H       1  UNL1        0.0584
     50 H           7.7152    1.3557   -7.5377 H       1  UNL1        0.2095
     51 H           4.3434    1.0316   -5.2090 H       1  UNL1        0.0648
     52 H           5.6169    1.1024   -7.6386 H       1  UNL1        0.2100
     53 H           4.6892   -1.5446   -6.1719 H       1  UNL1        0.0675
     54 H           5.3598   -0.5007   -3.6091 H       1  UNL1        0.2101
     55 H           7.4749   -4.6079   -3.7885 H       1  UNL1        0.0671
     56 H           9.5589   -2.9660   -3.9973 H       1  UNL1        0.2101
     57 H           6.6988   -3.9549   -1.4682 H       1  UNL1        0.0648
     58 H           9.2309   -5.1894   -1.6505 H       1  UNL1        0.2100
     59 H           9.5225   -2.7985   -1.2453 H       1  UNL1        0.0647
     60 H           7.4445   -2.6460    0.6631 H       1  UNL1        0.2100
     61 H           5.8971   -1.6001    2.8237 H       1  UNL1        0.0671
     62 H           7.0433    0.6326    2.0866 H       1  UNL1        0.2101
     63 H           3.5026   -0.8806    3.1241 H       1  UNL1        0.0648
     64 H           5.4596    0.2951    4.7768 H       1  UNL1        0.2100
     65 H           4.6976    1.9388    3.0643 H       1  UNL1        0.0647
     66 H           1.9501    1.3836    3.0078 H       1  UNL1        0.2100
@<TRIPOS>BOND
     1     1     2    1
     2     2     3    1
     3     3     4    1
     4     4     5    1
     5     5     6    1
     6     6     7    1
     7     7     8    1
     8     8     9    1
     9     9    10    1
    10    10    11    1
    11    11    12    1
    12    12    13    1
    13    13    14    1
    14    12    15    1
    15    15    16    1
    16    16    17    1
    17    17    18    1
    18    16    19    1
    19    19    20    1
    20    19    21    1
    21    12    21    1
    22    21    22    1
    23    10    23    1
    24    23    24    1
    25    23    25    1
    26    25    26    1
    27    25    27    1
    28     8    27    1
    29    27    28    1
    30     5    29    1
    31    29    30    1
    32    29    31    1
    33    31    32    1
    34    31    33    1
    35     3    33    1
    36    33    34    1
    37     1    35    1
    38     2    36    1
    39     2    37    1
    40     3    38    1
    41     5    39    1
    42     7    40    1
    43     7    41    1
    44     8    42    1
    45    10    43    1
    46    13    44    1
    47    13    45    1
    48    14    46    1
    49    16    47    1
    50    17    48    1
    51    17    49    1
    52    18    50    1
    53    19    51    1
    54    20    52    1
    55    21    53    1
    56    22    54    1
    57    23    55    1
    58    24    56    1
    59    25    57    1
    60    26    58    1
    61    27    59    1
    62    28    60    1
    63    29    61    1
    64    30    62    1
    65    31    63    1
    66    32    64    1
    67    33    65    1
    68    34    66    1
