@<TRIPOS>MOLECULE
*****
   13    13     1     0     0
SMALL
bcc


@<TRIPOS>ATOM
      1 O            1.9210    -0.0270     0.1090 o          1 UNL      -0.631500
      2 C            0.7050     0.0130     0.0640 c          1 UNL       0.697500
      3 C1          -0.1580     1.2390     0.2140 c3         1 UNL      -0.159400
      4 C2          -1.5200     0.7490    -0.2680 c3         1 UNL      -0.094400
      5 C3          -1.5050    -0.7330     0.0530 c3         1 UNL       0.093000
      6 N           -0.1230    -1.0800    -0.0760 ns         1 UNL      -0.592900
      7 H            0.2160     2.0640    -0.3970 hc         1 UNL       0.080700
      8 H1          -0.1860     1.5270     1.2690 hc         1 UNL       0.080700
      9 H2          -1.5950     0.8920    -1.3540 hc         1 UNL       0.055700
     10 H3          -2.3560     1.2790     0.1980 hc         1 UNL       0.055700
     11 H4          -2.1080    -1.3270    -0.6380 h1         1 UNL       0.040700
     12 H5          -1.8150    -0.9310     1.0840 h1         1 UNL       0.040700
     13 H6           0.2590    -2.0170    -0.0780 hn         1 UNL       0.332500
@<TRIPOS>BOND
     1     1     2 2   
     2     2     3 1   
     3     3     4 1   
     4     4     5 1   
     5     5     6 1   
     6     2     6 1   
     7     3     7 1   
     8     3     8 1   
     9     4     9 1   
    10     4    10 1   
    11     5    11 1   
    12     5    12 1   
    13     6    13 1   
@<TRIPOS>SUBSTRUCTURE
     1 UNL         1 TEMP              0 ****  ****    0 ROOT
