@<TRIPOS>MOLECULE
*****
 31 32 0 0 0
SMALL
GASTEIGER

@<TRIPOS>ATOM
      1 C           3.1555   -0.4221    1.1410 C.3     1  UNL1       -0.0640
      2 C           2.3752    0.1552   -0.0348 C.3     1  UNL1       -0.0378
      3 C           2.9835    0.0028   -1.4693 C.3     1  UNL1        0.0724
      4 C           2.0737    0.6882   -2.5379 C.ar    1  UNL1       -0.0324
      5 C           2.6223    1.1750   -3.7442 C.ar    1  UNL1       -0.0576
      6 C           1.8147    1.7268   -4.7453 C.ar    1  UNL1       -0.0615
      7 C           0.4396    1.8039   -4.5709 C.ar    1  UNL1       -0.0617
      8 C          -0.1294    1.3357   -3.3907 C.ar    1  UNL1       -0.0615
      9 C           0.6757    0.7800   -2.3924 C.ar    1  UNL1       -0.0576
     10 C           3.1136   -1.4779   -1.9100 C.3     1  UNL1       -0.0267
     11 C           4.3171   -2.2069   -1.3336 C.3     1  UNL1        0.0256
     12 C           5.5895   -1.4432   -1.5703 C.2     1  UNL1        0.2193
     13 O           6.6915   -1.9838   -1.5461 O.2     1  UNL1       -0.2754
     14 N           5.4731   -0.0864   -1.7014 N.am    1  UNL1       -0.2557
     15 C           4.3699    0.6872   -1.4406 C.2     1  UNL1        0.2297
     16 O           4.5259    1.8790   -1.1720 O.2     1  UNL1       -0.2744
     17 H           2.7074   -0.0835    2.0813 H       1  UNL1        0.0230
     18 H           4.2038   -0.1139    1.1426 H       1  UNL1        0.0230
     19 H           3.0954   -1.5127    1.1588 H       1  UNL1        0.0230
     20 H           2.2226    1.2243    0.1703 H       1  UNL1        0.0276
     21 H           1.3855   -0.3121    0.0078 H       1  UNL1        0.0276
     22 H           3.6928    1.1332   -3.9325 H       1  UNL1        0.0621
     23 H           2.2656    2.0951   -5.6640 H       1  UNL1        0.0618
     24 H          -0.1902    2.2248   -5.3522 H       1  UNL1        0.0618
     25 H          -1.2069    1.3940   -3.2504 H       1  UNL1        0.0618
     26 H           0.1701    0.4170   -1.5018 H       1  UNL1        0.0621
     27 H           3.2130   -1.5300   -3.0044 H       1  UNL1        0.0283
     28 H           2.1969   -2.0298   -1.6686 H       1  UNL1        0.0283
     29 H           4.4082   -3.1859   -1.8163 H       1  UNL1        0.0359
     30 H           4.2289   -2.3914   -0.2642 H       1  UNL1        0.0359
     31 H           6.3529    0.4115   -1.7069 H       1  UNL1        0.1575
@<TRIPOS>BOND
     1     1     2    1
     2     2     3    1
     3     3     4    1
     4     4     5   ar
     5     5     6   ar
     6     6     7   ar
     7     7     8   ar
     8     8     9   ar
     9     4     9   ar
    10     3    10    1
    11    10    11    1
    12    11    12    1
    13    12    13    2
    14    12    14   am
    15    14    15   am
    16     3    15    1
    17    15    16    2
    18     1    17    1
    19     1    18    1
    20     1    19    1
    21     2    20    1
    22     2    21    1
    23     5    22    1
    24     6    23    1
    25     7    24    1
    26     8    25    1
    27     9    26    1
    28    10    27    1
    29    10    28    1
    30    11    29    1
    31    11    30    1
    32    14    31    1
