@<TRIPOS>MOLECULE
*****
   45    46     1     0     0
SMALL
bcc


@<TRIPOS>ATOM
      1 O            1.1850     0.1370     0.5250 oh         1 UNL      -0.623800
      2 C            2.3190    -0.1880    -0.2730 c3         1 UNL       0.095400
      3 C1           2.7470     0.9850    -1.1780 c3         1 UNL       0.117100
      4 O1           3.3220     2.0650    -0.4210 os         1 UNL      -0.451600
      5 C2           2.3770     2.8650     0.2990 c3         1 UNL       0.298900
      6 O2           3.0810     3.8590     1.0730 os         1 UNL      -0.410600
      7 C3           4.0490     3.2820     1.9960 c3         1 UNL       0.089100
      8 C4           3.4050     2.4060     3.0950 c3         1 UNL       0.081100
      9 C5           4.4460     1.5260     3.8010 c3         1 UNL       0.122400
     10 O3           3.8350     0.7620     4.8380 oh         1 UNL      -0.595800
     11 O4           2.6110     3.1900     4.0070 os         1 UNL      -0.395600
     12 C6           3.2720     4.2580     4.6540 c3         1 UNL       0.343900
     13 O5           4.1820     3.7240     5.6220 oh         1 UNL      -0.639800
     14 C7           3.9420     5.2180     3.6590 c3         1 UNL       0.055100
     15 O6           4.6870     6.2080     4.3880 oh         1 UNL      -0.608800
     16 C8           4.8250     4.4340     2.6710 c3         1 UNL       0.115100
     17 O7           5.3770     5.3150     1.6940 oh         1 UNL      -0.596800
     18 C9           1.4050     3.5260    -0.7060 c3         1 UNL       0.097100
     19 O8           2.1060     4.3350    -1.6770 oh         1 UNL      -0.586800
     20 C10          0.6570     2.4160    -1.4640 c3         1 UNL       0.084100
     21 O9          -0.2290     2.9860    -2.4420 oh         1 UNL      -0.575800
     22 C11          1.6620     1.4730    -2.1570 c3         1 UNL       0.096100
     23 O10          1.0350     0.3610    -2.7980 oh         1 UNL      -0.579800
     24 H            1.0870    -0.5750     1.1850 ho         1 UNL       0.415000
     25 H1           2.0650    -1.0690    -0.8710 h1         1 UNL       0.047200
     26 H2           3.1380    -0.4460     0.4060 h1         1 UNL       0.047200
     27 H3           3.5690     0.5890    -1.7880 h1         1 UNL       0.093700
     28 H4           1.7830     2.2740     0.9900 h2         1 UNL       0.077700
     29 H5           4.7610     2.7020     1.3950 h1         1 UNL       0.081700
     30 H6           2.6870     1.7070     2.6630 h1         1 UNL       0.088700
     31 H7           5.2700     2.0900     4.2510 h1         1 UNL       0.048200
     32 H8           4.8930     0.8230     3.0890 h1         1 UNL       0.048200
     33 H9           3.4560     1.4220     5.4550 ho         1 UNL       0.428000
     34 H10          2.5190     4.8180     5.2350 h2         1 UNL       0.092700
     35 H11          5.0110     4.2250     5.5490 ho         1 UNL       0.438000
     36 H12          3.1700     5.7540     3.0920 h1         1 UNL       0.076700
     37 H13          5.6360     6.0000     4.3400 ho         1 UNL       0.429000
     38 H14          5.6880     4.0320     3.2120 h1         1 UNL       0.095700
     39 H15          4.6500     5.5450     1.0850 ho         1 UNL       0.425000
     40 H16          0.7060     4.1990    -0.2010 h1         1 UNL       0.108700
     41 H17          3.0550     4.1290    -1.5770 ho         1 UNL       0.414000
     42 H18          0.0110     1.8570    -0.7820 h1         1 UNL       0.103700
     43 H19          0.2860     3.6860    -2.8920 ho         1 UNL       0.415000
     44 H20          2.1520     2.0380    -2.9610 h1         1 UNL       0.082700
     45 H21          0.1890     0.1960    -2.3450 ho         1 UNL       0.414000
@<TRIPOS>BOND
     1     1     2 1   
     2     2     3 1   
     3     3     4 1   
     4     4     5 1   
     5     5     6 1   
     6     6     7 1   
     7     7     8 1   
     8     8     9 1   
     9     9    10 1   
    10     8    11 1   
    11    11    12 1   
    12    12    13 1   
    13    12    14 1   
    14    14    15 1   
    15    14    16 1   
    16     7    16 1   
    17    16    17 1   
    18     5    18 1   
    19    18    19 1   
    20    18    20 1   
    21    20    21 1   
    22    20    22 1   
    23     3    22 1   
    24    22    23 1   
    25     1    24 1   
    26     2    25 1   
    27     2    26 1   
    28     3    27 1   
    29     5    28 1   
    30     7    29 1   
    31     8    30 1   
    32     9    31 1   
    33     9    32 1   
    34    10    33 1   
    35    12    34 1   
    36    13    35 1   
    37    14    36 1   
    38    15    37 1   
    39    16    38 1   
    40    17    39 1   
    41    18    40 1   
    42    19    41 1   
    43    20    42 1   
    44    21    43 1   
    45    22    44 1   
    46    23    45 1   
@<TRIPOS>SUBSTRUCTURE
     1 UNL         1 TEMP              0 ****  ****    0 ROOT
