@<TRIPOS>MOLECULE
*****
   32    36     1     0     0
SMALL
bcc


@<TRIPOS>ATOM
      1 C           -4.1540    -0.5950    -0.3640 ca         1 UNL      -0.127000
      2 C1          -3.7900     0.7600    -0.2440 ca         1 UNL      -0.129000
      3 C2          -2.4460     1.1430    -0.1520 ca         1 UNL      -0.104000
      4 C3          -1.4840     0.1490    -0.1790 cp         1 UNL      -0.035000
      5 C4          -1.8580    -1.2190    -0.3220 cq         1 UNL      -0.031000
      6 C5          -3.1820    -1.6000    -0.4170 ca         1 UNL      -0.105000
      7 C6          -0.6390    -2.0020    -0.2050 cp         1 UNL      -0.033000
      8 C7          -0.3590    -3.3460    -0.3690 ca         1 UNL      -0.089000
      9 C8           0.9090    -3.8090     0.0030 ca         1 UNL      -0.135000
     10 C9           1.9050    -2.9180     0.4450 ca         1 UNL      -0.103000
     11 C10          1.7070    -1.5170     0.3440 ca         1 UNL      -0.017000
     12 C11          0.4020    -1.1240     0.0860 ca         1 UNL      -0.059000
     13 C12         -0.0490     0.1810     0.0240 cq         1 UNL      -0.033000
     14 C13          0.8740     1.2080     0.1130 ca         1 UNL      -0.071000
     15 C14          2.2430     0.8890     0.2270 ca         1 UNL      -0.042000
     16 C15          3.2120     1.8930     0.1050 ca         1 UNL      -0.115000
     17 C16          4.5730     1.5820     0.0800 ca         1 UNL      -0.130000
     18 C17          4.9940     0.2700     0.2450 ca         1 UNL      -0.122000
     19 C18          4.0510    -0.7440     0.4260 ca         1 UNL      -0.121000
     20 C19          2.6720    -0.4770     0.3800 ca         1 UNL      -0.007000
     21 H           -5.2070    -0.8650    -0.3880 ha         1 UNL       0.132000
     22 H1          -4.5660     1.5180    -0.1910 ha         1 UNL       0.132000
     23 H2          -2.1730     2.1820    -0.0230 ha         1 UNL       0.135000
     24 H3          -3.4690    -2.6440    -0.4690 ha         1 UNL       0.136000
     25 H4          -1.0950    -4.0330    -0.7730 ha         1 UNL       0.137000
     26 H5           1.1450    -4.8670    -0.0680 ha         1 UNL       0.132000
     27 H6           2.8390    -3.3180     0.8230 ha         1 UNL       0.133000
     28 H7           0.5490     2.2380     0.0190 ha         1 UNL       0.138000
     29 H8           2.9140     2.9290    -0.0500 ha         1 UNL       0.133000
     30 H9           5.3070     2.3640    -0.0990 ha         1 UNL       0.134000
     31 H10          6.0500     0.0170     0.1980 ha         1 UNL       0.133000
     32 H11          4.4150    -1.7620     0.5160 ha         1 UNL       0.134000
@<TRIPOS>BOND
     1     1     2 ar  
     2     2     3 ar  
     3     3     4 ar  
     4     4     5 2   
     5     5     6 1   
     6     1     6 ar  
     7     5     7 1   
     8     7     8 ar  
     9     8     9 ar  
    10     9    10 ar  
    11    10    11 ar  
    12    11    12 ar  
    13     7    12 ar  
    14    12    13 1   
    15     4    13 1   
    16    13    14 2   
    17    14    15 ar  
    18    15    16 ar  
    19    16    17 ar  
    20    17    18 ar  
    21    18    19 ar  
    22    19    20 ar  
    23    15    20 ar  
    24    11    20 ar  
    25     1    21 1   
    26     2    22 1   
    27     3    23 1   
    28     6    24 1   
    29     8    25 1   
    30     9    26 1   
    31    10    27 1   
    32    14    28 1   
    33    16    29 1   
    34    17    30 1   
    35    18    31 1   
    36    19    32 1   
@<TRIPOS>SUBSTRUCTURE
     1 UNL         1 TEMP              0 ****  ****    0 ROOT
