@<TRIPOS>MOLECULE
*****
   32    34     1     0     0
SMALL
bcc


@<TRIPOS>ATOM
      1 C            1.4630    -0.3030     0.0430 ca         1 UNL      -0.127000
      2 C1           0.5520    -1.2270     0.5450 ca         1 UNL      -0.131000
      3 C2          -0.8220    -0.9700     0.4780 ca         1 UNL      -0.118000
      4 C3          -1.3190     0.2210    -0.0810 cp         1 UNL      -0.038000
      5 C4          -2.7740     0.4920    -0.1830 cp         1 UNL      -0.035000
      6 C5          -3.7010    -0.0020     0.7470 ca         1 UNL      -0.120000
      7 C6          -5.0770     0.2590     0.6270 ca         1 UNL      -0.120000
      8 C7          -5.5880     1.0510    -0.4160 cp         1 UNL      -0.035000
      9 C8          -7.0330     1.3570    -0.5490 cp         1 UNL      -0.038000
     10 C9          -7.8770     1.4680     0.5710 ca         1 UNL      -0.118000
     11 C10         -9.2320     1.7940     0.4350 ca         1 UNL      -0.131000
     12 C11         -9.7740     2.0270    -0.8260 ca         1 UNL      -0.127000
     13 C12         -8.9650     1.9180    -1.9510 ca         1 UNL      -0.131000
     14 C13         -7.6170     1.5750    -1.8120 ca         1 UNL      -0.118000
     15 C14         -4.6570     1.5530    -1.3340 ca         1 UNL      -0.120000
     16 C15         -3.2910     1.2650    -1.2340 ca         1 UNL      -0.120000
     17 C16         -0.3700     1.1450    -0.5610 ca         1 UNL      -0.118000
     18 C17          1.0030     0.8850    -0.5120 ca         1 UNL      -0.131000
     19 H            2.5280    -0.5080     0.0840 ha         1 UNL       0.132000
     20 H1           0.9070    -2.1560     0.9830 ha         1 UNL       0.132000
     21 H2          -1.5010    -1.7300     0.8550 ha         1 UNL       0.135000
     22 H3          -3.3690    -0.5970     1.5950 ha         1 UNL       0.136000
     23 H4          -5.7430    -0.1780     1.3670 ha         1 UNL       0.136000
     24 H5          -7.4870     1.3230     1.5760 ha         1 UNL       0.135000
     25 H6          -9.8600     1.8750     1.3190 ha         1 UNL       0.132000
     26 H7         -10.8210     2.2950    -0.9300 ha         1 UNL       0.132000
     27 H8          -9.3780     2.0990    -2.9400 ha         1 UNL       0.132000
     28 H9          -7.0260     1.4780    -2.7190 ha         1 UNL       0.135000
     29 H10         -4.9730     2.1940    -2.1540 ha         1 UNL       0.136000
     30 H11         -2.6380     1.6600    -2.0080 ha         1 UNL       0.136000
     31 H12         -0.6880     2.0970    -0.9820 ha         1 UNL       0.135000
     32 H13          1.7040     1.6130    -0.9080 ha         1 UNL       0.132000
@<TRIPOS>BOND
     1     1     2 ar  
     2     2     3 ar  
     3     3     4 ar  
     4     4     5 1   
     5     5     6 ar  
     6     6     7 ar  
     7     7     8 ar  
     8     8     9 1   
     9     9    10 ar  
    10    10    11 ar  
    11    11    12 ar  
    12    12    13 ar  
    13    13    14 ar  
    14     9    14 ar  
    15     8    15 ar  
    16    15    16 ar  
    17     5    16 ar  
    18     4    17 ar  
    19    17    18 ar  
    20     1    18 ar  
    21     1    19 1   
    22     2    20 1   
    23     3    21 1   
    24     6    22 1   
    25     7    23 1   
    26    10    24 1   
    27    11    25 1   
    28    12    26 1   
    29    13    27 1   
    30    14    28 1   
    31    15    29 1   
    32    16    30 1   
    33    17    31 1   
    34    18    32 1   
@<TRIPOS>SUBSTRUCTURE
     1 UNL         1 TEMP              0 ****  ****    0 ROOT
