@<TRIPOS>MOLECULE
*****
 27 31 0 0 0
SMALL
GASTEIGER

@<TRIPOS>ATOM
      1 CL          1.3174   -0.5705   -0.2010 Cl      1  UNL1       -0.0851
      2 C           2.8247    0.2013   -0.2133 C.2     1  UNL1        0.0585
      3 C           3.2556    1.1497   -1.0591 C.2     1  UNL1        0.0585
      4 CL          2.3975    1.8807   -2.3239 Cl      1  UNL1       -0.0851
      5 C           4.6391    1.5836   -0.6100 C.3     1  UNL1        0.1194
      6 CL          5.1540    3.1981   -1.0603 Cl      1  UNL1       -0.1086
      7 C           5.7154    0.4977   -0.8152 C.3     1  UNL1       -0.0036
      8 C           6.7444   -0.1621   -1.7663 C.3     1  UNL1       -0.0067
      9 C           6.3051   -1.6502   -1.8898 C.3     1  UNL1       -0.0418
     10 C           6.1021   -1.8341   -0.3251 C.3     1  UNL1       -0.0067
     11 C           7.5249   -1.5281    0.1057 C.3     1  UNL1        0.0886
     12 O           7.9273   -0.2436    0.5278 O.3     1  UNL1       -0.3677
     13 C           8.0018   -0.4586   -0.8854 C.3     1  UNL1        0.0886
     14 C           5.0262   -0.7495   -0.2136 C.3     1  UNL1       -0.0036
     15 C           3.9817   -0.1300    0.7581 C.3     1  UNL1        0.1194
     16 CL          3.5956   -1.1105    2.1421 Cl      1  UNL1       -0.1086
     17 C           4.4063    1.3589    0.9793 C.3     1  UNL1        0.1663
     18 CL          5.8090    1.5431    2.0952 Cl      1  UNL1       -0.0964
     19 CL          3.1293    2.4271    1.7181 Cl      1  UNL1       -0.0964
     20 H           6.4340    0.9836   -0.1652 H       1  UNL1        0.0329
     21 H           6.9662    0.3578   -2.6992 H       1  UNL1        0.0330
     22 H           7.0985   -2.3028   -2.2786 H       1  UNL1        0.0272
     23 H           5.4080   -1.7976   -2.5002 H       1  UNL1        0.0272
     24 H           5.7676   -2.8398   -0.0632 H       1  UNL1        0.0330
     25 H           8.1543   -2.3850    0.2903 H       1  UNL1        0.0625
     26 H           8.9464   -0.5940   -1.3913 H       1  UNL1        0.0625
     27 H           4.3318   -1.1917   -0.9548 H       1  UNL1        0.0329
@<TRIPOS>BOND
     1     1     2    1
     2     2     3    2
     3     3     4    1
     4     3     5    1
     5     5     6    1
     6     5     7    1
     7     7     8    1
     8     8     9    1
     9     9    10    1
    10    10    11    1
    11    11    12    1
    12    12    13    1
    13     8    13    1
    14    11    13    1
    15    10    14    1
    16     7    14    1
    17    14    15    1
    18     2    15    1
    19    15    16    1
    20    15    17    1
    21     5    17    1
    22    17    18    1
    23    17    19    1
    24     7    20    1
    25     8    21    1
    26     9    22    1
    27     9    23    1
    28    10    24    1
    29    11    25    1
    30    13    26    1
    31    14    27    1
