@<TRIPOS>MOLECULE
*****
 47 49 0 0 0
SMALL
GASTEIGER

@<TRIPOS>ATOM
      1 C           0.8262   -0.2991    0.1109 C.3     1  UNL1       -0.0394
      2 C           2.3199   -0.1487    0.0704 C.ar    1  UNL1       -0.0454
      3 C           3.1311   -1.2919    0.0803 C.ar    1  UNL1       -0.0311
      4 C           4.5282   -1.2023    0.0581 C.ar    1  UNL1        0.0886
      5 N           5.2269   -2.4253    0.0630 N.ar    1  UNL1       -0.2368
      6 C           6.5258   -2.3910    0.0685 C.ar    1  UNL1        0.1712
      7 C           7.3004   -3.6788    0.0708 C.ar    1  UNL1        0.2817
      8 O           6.7709   -4.7752    0.0863 O.2     1  UNL1       -0.2653
      9 N           8.6537   -3.4923    0.0712 N.ar    1  UNL1       -0.2717
     10 C           9.3037   -2.2963    0.1482 C.ar    1  UNL1        0.3505
     11 O          10.5273   -2.3029    0.2387 O.2     1  UNL1       -0.2446
     12 N           8.5963   -1.1311    0.1316 N.ar    1  UNL1       -0.1733
     13 C           7.2962   -1.1004    0.0741 C.ar    1  UNL1        0.1705
     14 N           6.5845    0.1005    0.0235 N.ar    1  UNL1       -0.3195
     15 C           7.3246    1.3793    0.0504 C.3     1  UNL1        0.0538
     16 C           7.6264    1.8326    1.4990 C.3     1  UNL1        0.1014
     17 O           8.3991    0.8630    2.2371 O.3     1  UNL1       -0.3874
     18 C           8.3704    3.1874    1.6146 C.3     1  UNL1        0.1106
     19 O           8.4748    3.5099    3.0103 O.3     1  UNL1       -0.3865
     20 C           9.7858    3.1994    1.0016 C.3     1  UNL1        0.1065
     21 O           9.7110    2.9836   -0.4102 O.3     1  UNL1       -0.3869
     22 C          10.5289    4.5195    1.2854 C.3     1  UNL1        0.0726
     23 O          11.8125    4.5357    0.6585 O.3     1  UNL1       -0.3924
     24 C           5.1725    0.0573    0.0295 C.ar    1  UNL1        0.0694
     25 C           4.3524    1.1961   -0.0014 C.ar    1  UNL1       -0.0329
     26 C           2.9420    1.1084    0.0325 C.ar    1  UNL1       -0.0455
     27 C           2.1259    2.3746    0.0379 C.3     1  UNL1       -0.0394
     28 H           0.5246   -1.3517    0.1194 H       1  UNL1        0.0278
     29 H           0.3724    0.1654   -0.7701 H       1  UNL1        0.0278
     30 H           0.4237    0.1659    1.0164 H       1  UNL1        0.0278
     31 H           2.6767   -2.2825    0.1072 H       1  UNL1        0.0642
     32 H           9.2328   -4.3167    0.1084 H       1  UNL1        0.1735
     33 H           6.8100    2.1666   -0.5087 H       1  UNL1        0.0519
     34 H           8.2575    1.2145   -0.4939 H       1  UNL1        0.0519
     35 H           6.6799    1.9242    2.0458 H       1  UNL1        0.0638
     36 H           8.9074    0.3340    1.5874 H       1  UNL1        0.2100
     37 H           7.7623    3.9662    1.1402 H       1  UNL1        0.0646
     38 H           8.7619    2.6830    3.4526 H       1  UNL1        0.2100
     39 H          10.3865    2.3825    1.4191 H       1  UNL1        0.0643
     40 H           9.4162    3.8129   -0.8277 H       1  UNL1        0.2100
     41 H          10.6745    4.6779    2.3582 H       1  UNL1        0.0584
     42 H           9.9730    5.3702    0.8790 H       1  UNL1        0.0584
     43 H          12.1702    3.6303    0.6801 H       1  UNL1        0.2095
     44 H           4.7843    2.1904   -0.0464 H       1  UNL1        0.0641
     45 H           2.7627    3.2648    0.0495 H       1  UNL1        0.0278
     46 H           1.4968    2.4119    0.9332 H       1  UNL1        0.0278
     47 H           1.4951    2.4271   -0.8550 H       1  UNL1        0.0278
@<TRIPOS>BOND
     1     1     2    1
     2     2     3   ar
     3     3     4   ar
     4     4     5   ar
     5     5     6   ar
     6     6     7   ar
     7     7     8    2
     8     7     9   ar
     9     9    10   ar
    10    10    11    2
    11    10    12   ar
    12    12    13   ar
    13     6    13    1
    14    13    14   ar
    15    14    15    1
    16    15    16    1
    17    16    17    1
    18    16    18    1
    19    18    19    1
    20    18    20    1
    21    20    21    1
    22    20    22    1
    23    22    23    1
    24    14    24   ar
    25     4    24   ar
    26    24    25   ar
    27    25    26   ar
    28     2    26   ar
    29    26    27    1
    30     1    28    1
    31     1    29    1
    32     1    30    1
    33     3    31    1
    34     9    32    1
    35    15    33    1
    36    15    34    1
    37    16    35    1
    38    17    36    1
    39    18    37    1
    40    19    38    1
    41    20    39    1
    42    21    40    1
    43    22    41    1
    44    22    42    1
    45    23    43    1
    46    25    44    1
    47    27    45    1
    48    27    46    1
    49    27    47    1
