@<TRIPOS>MOLECULE
*****
   55    58     1     0     0
SMALL
bcc


@<TRIPOS>ATOM
      1 C            0.8520    -0.2530     1.5800 c3         1 UNL      -0.204100
      2 C1           2.0450     0.5760     1.8990 c          1 UNL       0.576100
      3 O            1.9840     1.7840     1.6260 o          1 UNL      -0.534100
      4 C2           3.3990    -0.0990     2.3220 c3         1 UNL      -0.166700
      5 C3           4.5480    -0.1320     3.3820 c3         1 UNL      -0.075400
      6 C4           5.7220     0.6180     2.6370 c3         1 UNL      -0.076400
      7 C5           5.1930     0.8030     1.1860 c3         1 UNL      -0.053700
      8 C6           6.1330     0.9040     0.0230 c3         1 UNL      -0.047700
      9 C7           6.8920     2.2130     0.1080 c3         1 UNL      -0.045200
     10 C8           7.6950     2.3710    -1.1240 c2         1 UNL      -0.165200
     11 C9           8.1500     1.3290    -1.8360 c2         1 UNL      -0.117400
     12 C10          9.1790     1.6390    -2.8960 c3         1 UNL      -0.076200
     13 C11         10.4910     1.0240    -2.4180 c3         1 UNL       0.146100
     14 O1          10.9160     1.5820    -1.1760 oh         1 UNL      -0.597800
     15 C12         10.3330    -0.4900    -2.3090 c3         1 UNL      -0.111400
     16 C13          9.2670    -0.8610    -1.2650 c3         1 UNL      -0.072400
     17 C14          7.8920    -0.1660    -1.4920 c3         1 UNL      -0.001800
     18 C15          7.1920    -0.8620    -2.6890 c3         1 UNL      -0.082100
     19 C16          7.0350    -0.3240    -0.1590 c3         1 UNL      -0.048700
     20 C17          6.2450    -1.6660    -0.0350 c3         1 UNL      -0.072400
     21 C18          5.0940    -1.6920     1.0000 c3         1 UNL      -0.077400
     22 C19          4.2400    -0.3740     1.0140 c3         1 UNL      -0.031000
     23 C20          3.4640    -0.3530    -0.3200 c3         1 UNL      -0.088100
     24 H            0.8070    -0.4390     0.4950 hc         1 UNL       0.063700
     25 H1          -0.0380     0.3250     1.8530 hc         1 UNL       0.063700
     26 H2           0.8640    -1.1910     2.1250 hc         1 UNL       0.063700
     27 H3           3.4810     0.9550     2.6700 hc         1 UNL       0.060700
     28 H4           4.8450    -1.1520     3.6500 hc         1 UNL       0.054700
     29 H5           4.3150     0.3550     4.3370 hc         1 UNL       0.054700
     30 H6           6.6530     0.0450     2.6890 hc         1 UNL       0.045700
     31 H7           5.9090     1.5950     3.0960 hc         1 UNL       0.045700
     32 H8           4.6100     1.7380     1.1770 hc         1 UNL       0.044700
     33 H9           5.5190     0.9920    -0.8850 hc         1 UNL       0.050700
     34 H10          7.5510     2.2520     0.9820 hc         1 UNL       0.050700
     35 H11          6.1920     3.0540     0.1870 hc         1 UNL       0.050700
     36 H12          7.9510     3.3940    -1.3940 ha         1 UNL       0.123000
     37 H13          9.3040     2.7240    -3.0160 hc         1 UNL       0.057700
     38 H14          8.8680     1.2490    -3.8690 hc         1 UNL       0.057700
     39 H15         11.2850     1.2600    -3.1560 h1         1 UNL       0.070700
     40 H16         10.1430     1.6080    -0.5660 ho         1 UNL       0.402000
     41 H17         11.2820    -0.9420    -2.0130 hc         1 UNL       0.052700
     42 H18         10.0570    -0.9030    -3.2840 hc         1 UNL       0.052700
     43 H19          9.6600    -0.6020    -0.2780 hc         1 UNL       0.044200
     44 H20          9.1450    -1.9550    -1.2590 hc         1 UNL       0.044200
     45 H21          7.6720    -0.6530    -3.6490 hc         1 UNL       0.036367
     46 H22          6.1420    -0.5640    -2.7780 hc         1 UNL       0.036367
     47 H23          7.2200    -1.9550    -2.5790 hc         1 UNL       0.036367
     48 H24          7.7350    -0.3120     0.6900 hc         1 UNL       0.053700
     49 H25          6.9540    -2.4690     0.2060 hc         1 UNL       0.043200
     50 H26          5.7950    -1.9560    -0.9860 hc         1 UNL       0.043200
     51 H27          5.5540    -1.9330     1.9600 hc         1 UNL       0.053200
     52 H28          4.4390    -2.5490     0.7900 hc         1 UNL       0.053200
     53 H29          2.6980    -1.1330    -0.3370 hc         1 UNL       0.036700
     54 H30          4.1060    -0.5700    -1.1800 hc         1 UNL       0.036700
     55 H31          3.0100     0.6190    -0.5270 hc         1 UNL       0.036700
@<TRIPOS>BOND
     1     1     2 1   
     2     2     3 2   
     3     2     4 1   
     4     4     5 1   
     5     5     6 1   
     6     6     7 1   
     7     7     8 1   
     8     8     9 1   
     9     9    10 1   
    10    10    11 2   
    11    11    12 1   
    12    12    13 1   
    13    13    14 1   
    14    13    15 1   
    15    15    16 1   
    16    16    17 1   
    17    11    17 1   
    18    17    18 1   
    19    17    19 1   
    20     8    19 1   
    21    19    20 1   
    22    20    21 1   
    23    21    22 1   
    24     4    22 1   
    25     7    22 1   
    26    22    23 1   
    27     1    24 1   
    28     1    25 1   
    29     1    26 1   
    30     4    27 1   
    31     5    28 1   
    32     5    29 1   
    33     6    30 1   
    34     6    31 1   
    35     7    32 1   
    36     8    33 1   
    37     9    34 1   
    38     9    35 1   
    39    10    36 1   
    40    12    37 1   
    41    12    38 1   
    42    13    39 1   
    43    14    40 1   
    44    15    41 1   
    45    15    42 1   
    46    16    43 1   
    47    16    44 1   
    48    18    45 1   
    49    18    46 1   
    50    18    47 1   
    51    19    48 1   
    52    20    49 1   
    53    20    50 1   
    54    21    51 1   
    55    21    52 1   
    56    23    53 1   
    57    23    54 1   
    58    23    55 1   
@<TRIPOS>SUBSTRUCTURE
     1 UNL         1 TEMP              0 ****  ****    0 ROOT
