@<TRIPOS>MOLECULE
*****
 32 36 0 0 0
SMALL
GASTEIGER

@<TRIPOS>ATOM
      1 C           4.9963   -0.7392    0.0029 C.ar    1  UNL1       -0.0612
      2 C           5.0150    0.6524    0.0078 C.ar    1  UNL1       -0.0612
      3 C           3.8170    1.3714    0.0063 C.ar    1  UNL1       -0.0540
      4 C           2.5787    0.7095    0.0008 C.ar    1  UNL1       -0.0173
      5 C           1.3675    1.4307    0.0001 C.ar    1  UNL1       -0.0457
      6 C           0.1769    0.7256   -0.0023 C.ar    1  UNL1       -0.0090
      7 C           0.1728   -0.6944   -0.0040 C.ar    1  UNL1       -0.0090
      8 C           1.3496   -1.4179   -0.0054 C.ar    1  UNL1       -0.0457
      9 C           2.5654   -0.7185   -0.0030 C.ar    1  UNL1       -0.0173
     10 C           3.7792   -1.4199   -0.0029 C.ar    1  UNL1       -0.0540
     11 C          -1.2170   -1.1233   -0.0025 C.ar    1  UNL1       -0.0090
     12 C          -1.8177   -2.3697   -0.0007 C.ar    1  UNL1       -0.0534
     13 C          -3.2213   -2.4360    0.0023 C.ar    1  UNL1       -0.0606
     14 C          -4.0123   -1.2663    0.0032 C.ar    1  UNL1       -0.0540
     15 C          -3.4032    0.0046    0.0013 C.ar    1  UNL1       -0.0167
     16 C          -4.0230    1.2684    0.0018 C.ar    1  UNL1       -0.0540
     17 C          -3.2404    2.4448    0.0000 C.ar    1  UNL1       -0.0606
     18 C          -1.8329    2.3928   -0.0012 C.ar    1  UNL1       -0.0534
     19 C          -1.2184    1.1536   -0.0017 C.ar    1  UNL1       -0.0090
     20 C          -2.0107    0.0124   -0.0010 C.ar    1  UNL1       -0.0024
     21 H           5.9285   -1.2981    0.0034 H       1  UNL1        0.0618
     22 H           5.9653    1.1803    0.0127 H       1  UNL1        0.0618
     23 H           3.8603    2.4584    0.0099 H       1  UNL1        0.0624
     24 H           1.3624    2.5157    0.0028 H       1  UNL1        0.0630
     25 H           1.3247   -2.5022   -0.0074 H       1  UNL1        0.0630
     26 H           3.7867   -2.5078   -0.0066 H       1  UNL1        0.0624
     27 H          -1.2247   -3.2778   -0.0010 H       1  UNL1        0.0624
     28 H          -3.7084   -3.4088    0.0043 H       1  UNL1        0.0618
     29 H          -5.0956   -1.3536    0.0057 H       1  UNL1        0.0624
     30 H          -5.1072    1.3446    0.0034 H       1  UNL1        0.0624
     31 H          -3.7393    3.4118    0.0000 H       1  UNL1        0.0618
     32 H          -1.2526    3.3093   -0.0027 H       1  UNL1        0.0624
@<TRIPOS>BOND
     1     1     2   ar
     2     2     3   ar
     3     3     4   ar
     4     4     5   ar
     5     5     6   ar
     6     6     7   ar
     7     7     8   ar
     8     8     9   ar
     9     4     9   ar
    10     9    10   ar
    11     1    10   ar
    12     7    11    1
    13    11    12   ar
    14    12    13   ar
    15    13    14   ar
    16    14    15   ar
    17    15    16   ar
    18    16    17   ar
    19    17    18   ar
    20    18    19   ar
    21     6    19    1
    22    19    20   ar
    23    11    20   ar
    24    15    20   ar
    25     1    21    1
    26     2    22    1
    27     3    23    1
    28     5    24    1
    29     8    25    1
    30    10    26    1
    31    12    27    1
    32    13    28    1
    33    14    29    1
    34    16    30    1
    35    17    31    1
    36    18    32    1
