@<TRIPOS>MOLECULE
*****
 17 18 0 0 0
SMALL
GASTEIGER

@<TRIPOS>ATOM
      1 C          -2.4896    0.6433   -0.0133 C.ar    1  UNL1       -0.0612
      2 C          -2.4512   -0.7491   -0.0087 C.ar    1  UNL1       -0.0611
      3 C          -1.2239   -1.4130   -0.0015 C.ar    1  UNL1       -0.0526
      4 C          -0.0211   -0.6839   -0.0008 C.ar    1  UNL1        0.0002
      5 C           1.2367   -1.2927   -0.0019 C.ar    1  UNL1        0.0352
      6 N           2.4141   -0.6245    0.0016 N.ar    1  UNL1       -0.2626
      7 C           2.3403    0.7222    0.0071 C.ar    1  UNL1        0.0281
      8 C           1.1501    1.4328    0.0064 C.ar    1  UNL1       -0.0359
      9 C          -0.0574    0.7244    0.0005 C.ar    1  UNL1       -0.0150
     10 C          -1.3013    1.3771   -0.0060 C.ar    1  UNL1       -0.0539
     11 H          -3.4458    1.1605   -0.0225 H       1  UNL1        0.0618
     12 H          -3.3772   -1.3187   -0.0115 H       1  UNL1        0.0618
     13 H          -1.2090   -2.5004    0.0031 H       1  UNL1        0.0624
     14 H           1.3363   -2.3748   -0.0080 H       1  UNL1        0.0836
     15 H           3.2968    1.2373    0.0114 H       1  UNL1        0.0830
     16 H           1.1702    2.5170    0.0103 H       1  UNL1        0.0639
     17 H          -1.3534    2.4636   -0.0073 H       1  UNL1        0.0624
@<TRIPOS>BOND
     1     1     2   ar
     2     2     3   ar
     3     3     4   ar
     4     4     5   ar
     5     5     6   ar
     6     6     7   ar
     7     7     8   ar
     8     8     9   ar
     9     4     9   ar
    10     9    10   ar
    11     1    10   ar
    12     1    11    1
    13     2    12    1
    14     3    13    1
    15     5    14    1
    16     7    15    1
    17     8    16    1
    18    10    17    1
