@<TRIPOS>MOLECULE
*****
 28 28 0 0 0
SMALL
GASTEIGER

@<TRIPOS>ATOM
      1 C           3.0275    1.6259   -0.9669 C.3     1  UNL1       -0.0106
      2 S           2.8346    0.0242   -0.1509 S.3     1  UNL1       -0.0879
      3 C           3.2870    0.4684    1.4902 C.ar    1  UNL1        0.2096
      4 N           3.0943    1.6842    1.8833 N.ar    1  UNL1       -0.1221
      5 N           3.4239    2.0652    3.1788 N.ar    1  UNL1       -0.1457
      6 C           3.8843    1.1959    4.0270 C.ar    1  UNL1        0.1347
      7 C           4.2178    1.6433    5.4662 C.3     1  UNL1        0.0116
      8 C           3.9566    3.1603    5.6141 C.3     1  UNL1       -0.0544
      9 C           3.3148    0.9145    6.4717 C.3     1  UNL1       -0.0544
     10 C           5.6963    1.3953    5.7952 C.3     1  UNL1       -0.0544
     11 C           4.0833   -0.2604    3.6258 C.ar    1  UNL1        0.2935
     12 O           4.4321   -1.1014    4.4434 O.2     1  UNL1       -0.2640
     13 N           3.7936   -0.5277    2.2985 N.ar    1  UNL1       -0.2063
     14 N           4.0157   -1.8671    1.8193 N.pl3   1  UNL1       -0.2933
     15 H           2.7826    1.5217   -2.0271 H       1  UNL1        0.0345
     16 H           4.0619    1.9708   -0.8825 H       1  UNL1        0.0345
     17 H           2.3566    2.3743   -0.5359 H       1  UNL1        0.0345
     18 H           2.9064    3.4056    5.4145 H       1  UNL1        0.0239
     19 H           4.5688    3.7398    4.9117 H       1  UNL1        0.0239
     20 H           4.1912    3.5112    6.6245 H       1  UNL1        0.0239
     21 H           2.2565    1.0922    6.2497 H       1  UNL1        0.0239
     22 H           3.5066    1.2591    7.4947 H       1  UNL1        0.0239
     23 H           3.4697   -0.1680    6.4654 H       1  UNL1        0.0239
     24 H           6.3509    1.9205    5.0905 H       1  UNL1        0.0239
     25 H           5.9616    0.3349    5.7598 H       1  UNL1        0.0239
     26 H           5.9371    1.7534    6.8042 H       1  UNL1        0.0239
     27 H           3.9475   -2.4916    2.6295 H       1  UNL1        0.1628
     28 H           3.2350   -2.1041    1.2035 H       1  UNL1        0.1628
@<TRIPOS>BOND
     1     1     2    1
     2     2     3    1
     3     3     4   ar
     4     4     5   ar
     5     5     6   ar
     6     6     7    1
     7     7     8    1
     8     7     9    1
     9     7    10    1
    10     6    11   ar
    11    11    12    2
    12    11    13   ar
    13     3    13   ar
    14    13    14    1
    15     1    15    1
    16     1    16    1
    17     1    17    1
    18     8    18    1
    19     8    19    1
    20     8    20    1
    21     9    21    1
    22     9    22    1
    23     9    23    1
    24    10    24    1
    25    10    25    1
    26    10    26    1
    27    14    27    1
    28    14    28    1
