@<TRIPOS>MOLECULE
*****
   32    32     1     0     0
SMALL
bcc


@<TRIPOS>ATOM
      1 O            3.3610     3.3960    -1.9530 o          1 UNL      -0.581100
      2 C            4.4040     3.0140    -2.4610 c          1 UNL       0.670900
      3 N            5.0610     1.8700    -2.1070 ns         1 UNL      -0.578900
      4 C1           4.5570     1.0180    -1.0400 c3         1 UNL       0.198400
      5 N1           5.1330    -0.3300    -1.3020 na         1 UNL      -0.150100
      6 C2           4.2720    -1.4370    -1.4440 cc         1 UNL      -0.120800
      7 C3           4.7230    -2.7020    -1.3580 cd         1 UNL      -0.120800
      8 N2           6.0780    -2.9950    -1.1260 na         1 UNL      -0.150100
      9 C4           6.4770    -4.3660    -0.7050 c3         1 UNL       0.198400
     10 N3           7.3710    -4.8330    -1.7540 ns         1 UNL      -0.578900
     11 C5           7.6080    -6.1630    -1.9460 c          1 UNL       0.670900
     12 O1           7.0730    -7.0580    -1.3090 o          1 UNL      -0.581100
     13 C6           7.0070    -4.5070     0.8030 c3         1 UNL       0.209200
     14 Cl           6.6810    -3.0750     1.8630 cl         1 UNL      -0.111733
     15 Cl1          6.2050    -5.8990     1.6430 cl         1 UNL      -0.111733
     16 Cl2          8.7990    -4.7830     0.8840 cl         1 UNL      -0.111733
     17 C7           6.9520    -1.8940    -1.1180 cc         1 UNL      -0.120800
     18 C8           6.5020    -0.6250    -1.2020 cd         1 UNL      -0.120800
     19 C9           4.7170     1.5670     0.4630 c3         1 UNL       0.209200
     20 Cl3          5.7310     3.0690     0.5610 cl         1 UNL      -0.111733
     21 Cl4          3.0940     1.9620     1.1710 cl         1 UNL      -0.111733
     22 Cl5          5.4710     0.4080     1.6340 cl         1 UNL      -0.111733
     23 H            4.9270     3.5660    -3.2650 h5         1 UNL       0.040200
     24 H1           5.9170     1.6030    -2.5680 hn         1 UNL       0.316500
     25 H2           3.4770     0.9530    -1.2300 h2         1 UNL       0.129700
     26 H3           3.2200    -1.2140    -1.6050 h4         1 UNL       0.160500
     27 H4           4.0540    -3.5520    -1.4540 h4         1 UNL       0.160500
     28 H5           5.5860    -5.0070    -0.7820 h2         1 UNL       0.129700
     29 H6           7.8690    -4.1410    -2.2930 hn         1 UNL       0.316500
     30 H7           8.3490    -6.3470    -2.7420 h5         1 UNL       0.040200
     31 H8           8.0060    -2.1200    -0.9810 h4         1 UNL       0.160500
     32 H9           7.1720     0.2240    -1.1290 h4         1 UNL       0.160500
@<TRIPOS>BOND
     1     1     2 2   
     2     2     3 1   
     3     3     4 1   
     4     4     5 1   
     5     5     6 1   
     6     6     7 2   
     7     7     8 1   
     8     8     9 1   
     9     9    10 1   
    10    10    11 1   
    11    11    12 2   
    12     9    13 1   
    13    13    14 1   
    14    13    15 1   
    15    13    16 1   
    16     8    17 1   
    17    17    18 2   
    18     5    18 1   
    19     4    19 1   
    20    19    20 1   
    21    19    21 1   
    22    19    22 1   
    23     2    23 1   
    24     3    24 1   
    25     4    25 1   
    26     6    26 1   
    27     7    27 1   
    28     9    28 1   
    29    10    29 1   
    30    11    30 1   
    31    17    31 1   
    32    18    32 1   
@<TRIPOS>SUBSTRUCTURE
     1 UNL         1 TEMP              0 ****  ****    0 ROOT
