@<TRIPOS>MOLECULE
*****
 22 24 0 0 0
SMALL
GASTEIGER

@<TRIPOS>ATOM
      1 C          -2.4366   -1.0870   -0.0021 C.ar    1  UNL1       -0.0609
      2 C          -2.4033    0.3199   -0.0023 C.ar    1  UNL1       -0.0580
      3 C          -1.1448    0.9064    0.0019 C.ar    1  UNL1       -0.0391
      4 C          -0.0011    0.1354    0.0067 C.ar    1  UNL1       -0.0115
      5 C           1.1419    0.9075   -0.0009 C.ar    1  UNL1       -0.0391
      6 C           2.4010    0.3223    0.0046 C.ar    1  UNL1       -0.0580
      7 C           2.4358   -1.0849    0.0175 C.ar    1  UNL1       -0.0609
      8 C           1.2591   -1.8614    0.0202 C.ar    1  UNL1       -0.0540
      9 C          -0.0008   -1.2353    0.0125 C.ar    1  UNL1       -0.0174
     10 C          -1.2591   -1.8625    0.0067 C.ar    1  UNL1       -0.0540
     11 C           0.7806    2.3526   -0.0224 C.3     1  UNL1       -0.0231
     12 C          -0.7851    2.3521   -0.0002 C.3     1  UNL1       -0.0231
     13 H          -3.4006   -1.5921   -0.0105 H       1  UNL1        0.0618
     14 H          -3.3085    0.9160   -0.0075 H       1  UNL1        0.0620
     15 H           3.3056    0.9190   -0.0021 H       1  UNL1        0.0620
     16 H           3.4004   -1.5887    0.0232 H       1  UNL1        0.0618
     17 H           1.3319   -2.9456    0.0278 H       1  UNL1        0.0624
     18 H          -1.3309   -2.9467    0.0063 H       1  UNL1        0.0624
     19 H           1.1570    2.8273   -0.9345 H       1  UNL1        0.0316
     20 H           1.1875    2.8700    0.8520 H       1  UNL1        0.0316
     21 H          -1.1915    2.8525   -0.8848 H       1  UNL1        0.0316
     22 H          -1.1630    2.8435    0.9023 H       1  UNL1        0.0316
@<TRIPOS>BOND
     1     1     2   ar
     2     2     3   ar
     3     3     4   ar
     4     4     5   ar
     5     5     6   ar
     6     6     7   ar
     7     7     8   ar
     8     8     9   ar
     9     4     9   ar
    10     9    10   ar
    11     1    10   ar
    12     5    11    1
    13    11    12    1
    14     3    12    1
    15     1    13    1
    16     2    14    1
    17     6    15    1
    18     7    16    1
    19     8    17    1
    20    10    18    1
    21    11    19    1
    22    11    20    1
    23    12    21    1
    24    12    22    1
