@<TRIPOS>MOLECULE
*****
 33 34 0 0 0
SMALL
GASTEIGER

@<TRIPOS>ATOM
      1 C           0.8838   -0.3071   -0.1059 C.3     1  UNL1       -0.0636
      2 C           2.3830   -0.0183   -0.0612 C.3     1  UNL1       -0.0296
      3 C           2.9055    0.8074    1.1592 C.3     1  UNL1        0.1440
      4 C           2.5985    0.2106    2.5591 C.2     1  UNL1       -0.0499
      5 C           2.4024   -1.1083    2.7784 C.2     1  UNL1       -0.0833
      6 C           2.0207   -1.7130    4.1004 C.3     1  UNL1       -0.0345
      7 C           1.5844   -0.6754    5.1299 C.3     1  UNL1       -0.0493
      8 C           2.5338    0.5136    5.1114 C.3     1  UNL1       -0.0490
      9 C           2.5352    1.1811    3.7323 C.3     1  UNL1       -0.0303
     10 C           2.2894    2.2136    1.0409 C.2     1  UNL1        0.2395
     11 O           1.0985    2.4550    1.2436 O.2     1  UNL1       -0.2739
     12 N           3.1092    3.2466    0.6929 N.am    1  UNL1       -0.2387
     13 C           4.4576    3.2105    0.5661 C.2     1  UNL1        0.3122
     14 O           5.1081    4.2153    0.3075 O.2     1  UNL1       -0.2520
     15 N           5.0503    2.0050    0.7446 N.am    1  UNL1       -0.2387
     16 C           4.4346    0.8145    1.0019 C.2     1  UNL1        0.2395
     17 O           5.1254   -0.2067    1.0430 O.2     1  UNL1       -0.2739
     18 H           0.6540   -0.9019   -0.9964 H       1  UNL1        0.0230
     19 H           0.2910    0.6079   -0.1719 H       1  UNL1        0.0230
     20 H           0.5429   -0.8773    0.7619 H       1  UNL1        0.0230
     21 H           2.6473    0.5107   -0.9873 H       1  UNL1        0.0280
     22 H           2.9099   -0.9802   -0.1202 H       1  UNL1        0.0280
     23 H           2.5105   -1.8276    1.9700 H       1  UNL1        0.0572
     24 H           2.8763   -2.2810    4.4846 H       1  UNL1        0.0307
     25 H           1.2037   -2.4274    3.9471 H       1  UNL1        0.0307
     26 H           1.5551   -1.1277    6.1273 H       1  UNL1        0.0268
     27 H           0.5650   -0.3350    4.9045 H       1  UNL1        0.0268
     28 H           3.5479    0.1796    5.3644 H       1  UNL1        0.0268
     29 H           2.2377    1.2430    5.8738 H       1  UNL1        0.0268
     30 H           3.3799    1.8782    3.6897 H       1  UNL1        0.0310
     31 H           1.6159    1.7728    3.6485 H       1  UNL1        0.0310
     32 H           2.6756    4.1582    0.6193 H       1  UNL1        0.1591
     33 H           6.0534    1.9748    0.6200 H       1  UNL1        0.1591
@<TRIPOS>BOND
     1     1     2    1
     2     2     3    1
     3     3     4    1
     4     4     5    2
     5     5     6    1
     6     6     7    1
     7     7     8    1
     8     8     9    1
     9     4     9    1
    10     3    10    1
    11    10    11    2
    12    10    12   am
    13    12    13   am
    14    13    14    2
    15    13    15   am
    16    15    16   am
    17     3    16    1
    18    16    17    2
    19     1    18    1
    20     1    19    1
    21     1    20    1
    22     2    21    1
    23     2    22    1
    24     5    23    1
    25     6    24    1
    26     6    25    1
    27     7    26    1
    28     7    27    1
    29     8    28    1
    30     8    29    1
    31     9    30    1
    32     9    31    1
    33    12    32    1
    34    15    33    1
