@<TRIPOS>MOLECULE
*****
 35 37 0 0 0
SMALL
GASTEIGER

@<TRIPOS>ATOM
      1 O           1.1163    0.1168    0.1726 O.2     1  UNL1       -0.2465
      2 C           2.3374   -0.0040    0.1354 C.ar    1  UNL1        0.3298
      3 N           3.1104    1.1324    0.1465 N.ar    1  UNL1       -0.3110
      4 C           4.4605    1.1092    0.1176 C.ar    1  UNL1        0.0288
      5 C           5.1376   -0.0313    0.0866 C.ar    1  UNL1        0.0365
      6 C           4.4245   -1.3104    0.0563 C.ar    1  UNL1        0.2602
      7 O           5.0711   -2.3541    0.0114 O.2     1  UNL1       -0.2672
      8 N           3.0290   -1.2197    0.0652 N.ar    1  UNL1       -0.2577
      9 C           2.2664   -2.4764   -0.0536 C.3     1  UNL1        0.0422
     10 C           1.4057   -2.5044   -1.3302 C.3     1  UNL1       -0.0318
     11 C           0.6333   -3.8120   -1.4670 C.3     1  UNL1       -0.0512
     12 C          -0.1995   -4.0983   -0.2218 C.3     1  UNL1       -0.0529
     13 C           0.6659   -4.1159    1.0351 C.3     1  UNL1       -0.0512
     14 C           1.4440   -2.8090    1.2044 C.3     1  UNL1       -0.0318
     15 C           6.6040    0.1832    0.0496 C.3     1  UNL1       -0.0206
     16 C           6.6867    1.6766   -0.3072 C.3     1  UNL1       -0.0435
     17 C           5.3436    2.3024    0.1026 C.3     1  UNL1       -0.0116
     18 H           2.6001    2.0078    0.1671 H       1  UNL1        0.1701
     19 H           2.9862   -3.2983   -0.1620 H       1  UNL1        0.0530
     20 H           2.0459   -2.3608   -2.2090 H       1  UNL1        0.0285
     21 H           0.6838   -1.6814   -1.3382 H       1  UNL1        0.0285
     22 H           1.3354   -4.6365   -1.6394 H       1  UNL1        0.0266
     23 H          -0.0207   -3.7590   -2.3447 H       1  UNL1        0.0266
     24 H          -0.7094   -5.0614   -0.3346 H       1  UNL1        0.0265
     25 H          -0.9789   -3.3333   -0.1179 H       1  UNL1        0.0265
     26 H           1.3689   -4.9567    0.9806 H       1  UNL1        0.0266
     27 H           0.0344   -4.2867    1.9145 H       1  UNL1        0.0266
     28 H           2.1105   -2.8947    2.0716 H       1  UNL1        0.0285
     29 H           0.7357   -2.0064    1.4370 H       1  UNL1        0.0285
     30 H           7.1076   -0.4301   -0.7028 H       1  UNL1        0.0315
     31 H           7.0473   -0.0127    1.0316 H       1  UNL1        0.0315
     32 H           6.8243    1.7850   -1.3918 H       1  UNL1        0.0272
     33 H           7.5358    2.1702    0.1759 H       1  UNL1        0.0272
     34 H           5.0255    3.0592   -0.6207 H       1  UNL1        0.0328
     35 H           5.4024    2.7544    1.0979 H       1  UNL1        0.0328
@<TRIPOS>BOND
     1     1     2    2
     2     2     3   ar
     3     3     4   ar
     4     4     5   ar
     5     5     6   ar
     6     6     7    2
     7     6     8   ar
     8     2     8   ar
     9     8     9    1
    10     9    10    1
    11    10    11    1
    12    11    12    1
    13    12    13    1
    14    13    14    1
    15     9    14    1
    16     5    15    1
    17    15    16    1
    18    16    17    1
    19     4    17    1
    20     3    18    1
    21     9    19    1
    22    10    20    1
    23    10    21    1
    24    11    22    1
    25    11    23    1
    26    12    24    1
    27    12    25    1
    28    13    26    1
    29    13    27    1
    30    14    28    1
    31    14    29    1
    32    15    30    1
    33    15    31    1
    34    16    32    1
    35    16    33    1
    36    17    34    1
    37    17    35    1
