@<TRIPOS>MOLECULE
*****
 42 43 0 0 0
SMALL
GASTEIGER

@<TRIPOS>ATOM
      1 C           3.3577   -2.2071   -6.7087 C.3     1  UNL1       -0.0306
      2 C           2.3357   -1.6031   -5.7651 C.3     1  UNL1        0.0900
      3 O           2.9310   -0.4293   -5.2011 O.3     1  UNL1       -0.4614
      4 C           3.5933   -0.5952   -4.0301 C.2     1  UNL1        0.3411
      5 O           3.4819   -1.5113   -3.2400 O.2     1  UNL1       -0.2449
      6 C           4.5413    0.5179   -3.8512 C.ar    1  UNL1        0.0853
      7 C           4.1690    1.8036   -4.2915 C.ar    1  UNL1       -0.0459
      8 C           5.0389    2.8848   -4.1504 C.ar    1  UNL1       -0.0609
      9 C           6.2757    2.7014   -3.5430 C.ar    1  UNL1       -0.0599
     10 C           6.6525    1.4342   -3.0967 C.ar    1  UNL1       -0.0345
     11 C           5.7943    0.3296   -3.2559 C.ar    1  UNL1        0.1207
     12 S           6.5277   -1.2938   -3.0681 S.O2    1  UNL1        0.0749
     13 O           6.2332   -1.9922   -4.3015 O.2     1  UNL1       -0.1517
     14 O           7.8889   -1.0407   -2.6356 O.2     1  UNL1       -0.1517
     15 N           5.7410   -2.0589   -1.7873 N.3     1  UNL1       -0.0985
     16 N           6.0723   -3.4803   -1.4435 N.am    1  UNL1       -0.1538
     17 C           7.1652   -4.1432   -2.0007 C.2     1  UNL1        0.2242
     18 O           7.9730   -3.7597   -2.8370 O.2     1  UNL1       -0.2775
     19 C           5.2574   -4.1696   -0.5010 C.ar    1  UNL1        0.2442
     20 N           4.3145   -3.4926    0.1687 N.ar    1  UNL1       -0.2011
     21 C           3.6389   -4.2005    1.0965 C.ar    1  UNL1        0.1379
     22 CL          2.4981   -3.2833    1.9956 Cl      1  UNL1       -0.0617
     23 C           3.8160   -5.5313    1.3736 C.ar    1  UNL1        0.0369
     24 C           4.7711   -6.1337    0.6116 C.ar    1  UNL1        0.2203
     25 O           4.9946   -7.4795    0.8128 O.3     1  UNL1       -0.4795
     26 C           5.9663   -8.0287   -0.0800 C.3     1  UNL1        0.0804
     27 N           5.4981   -5.4786   -0.3050 N.ar    1  UNL1       -0.1778
     28 H           2.9750   -3.1070   -7.1938 H       1  UNL1        0.0262
     29 H           4.2765   -2.4575   -6.1695 H       1  UNL1        0.0262
     30 H           3.6382   -1.4777   -7.4771 H       1  UNL1        0.0262
     31 H           2.0170   -2.3182   -4.9992 H       1  UNL1        0.0695
     32 H           1.4452   -1.2930   -6.3224 H       1  UNL1        0.0695
     33 H           3.2076    1.9684   -4.7762 H       1  UNL1        0.0626
     34 H           4.7582    3.8647   -4.5298 H       1  UNL1        0.0618
     35 H           6.9696    3.5341   -3.4532 H       1  UNL1        0.0618
     36 H           7.6563    1.3066   -2.6928 H       1  UNL1        0.0637
     37 H           4.7779   -1.7717   -1.5773 H       1  UNL1        0.1723
     38 H           7.2977   -5.1589   -1.5990 H       1  UNL1        0.1271
     39 H           3.2572   -6.0657    2.1263 H       1  UNL1        0.0701
     40 H           6.0556   -9.0978    0.1317 H       1  UNL1        0.0660
     41 H           6.9505   -7.5734    0.0789 H       1  UNL1        0.0660
     42 H           5.6520   -7.9217   -1.1252 H       1  UNL1        0.0660
@<TRIPOS>BOND
     1     1     2    1
     2     2     3    1
     3     3     4    1
     4     4     5    2
     5     4     6    1
     6     6     7   ar
     7     7     8   ar
     8     8     9   ar
     9     9    10   ar
    10    10    11   ar
    11     6    11   ar
    12    11    12    1
    13    12    13    2
    14    12    14    2
    15    12    15    1
    16    15    16    1
    17    16    17   am
    18    17    18    2
    19    16    19    1
    20    19    20   ar
    21    20    21   ar
    22    21    22    1
    23    21    23   ar
    24    23    24   ar
    25    24    25    1
    26    25    26    1
    27    24    27   ar
    28    19    27   ar
    29     1    28    1
    30     1    29    1
    31     1    30    1
    32     2    31    1
    33     2    32    1
    34     7    33    1
    35     8    34    1
    36     9    35    1
    37    10    36    1
    38    15    37    1
    39    17    38    1
    40    23    39    1
    41    26    40    1
    42    26    41    1
    43    26    42    1
