@<TRIPOS>MOLECULE
*****
   35    37     1     0     0
SMALL
bcc


@<TRIPOS>ATOM
      1 O            1.0840    -0.0010     0.0690 oh         1 UNL      -0.602800
      2 C            2.5350     0.0110     0.0360 c3         1 UNL       0.250400
      3 C1           2.8890     0.8950    -1.1990 c3         1 UNL       0.030300
      4 N            2.4860     0.4040    -2.5060 na         1 UNL      -0.059400
      5 C2           1.6690    -0.6270    -2.8580 cc         1 UNL       0.416400
      6 N1           1.5880    -0.7060    -4.1670 nd         1 UNL      -0.689000
      7 C3           2.3710     0.3280    -4.5840 cd         1 UNL       0.499900
      8 N2           2.9310     1.0480    -3.6090 nc         1 UNL      -0.516800
      9 C4           3.0020     0.6360     1.3730 ca         1 UNL      -0.141300
     10 C5           2.2030     0.5230     2.5340 ca         1 UNL      -0.092000
     11 C6           2.6220     1.0460     3.7610 ca         1 UNL      -0.165000
     12 C7           3.8570     1.6680     3.8490 ca         1 UNL       0.136900
     13 F            4.2660     2.1590     5.0260 f          1 UNL      -0.135900
     14 C8           4.6800     1.7720     2.7350 ca         1 UNL      -0.165000
     15 C9           4.2600     1.2550     1.5070 ca         1 UNL      -0.092000
     16 C10          3.0280    -1.4360    -0.0420 ca         1 UNL      -0.118300
     17 C11          2.2610    -2.4900     0.4910 ca         1 UNL      -0.074000
     18 C12          2.7040    -3.8140     0.4220 ca         1 UNL      -0.147000
     19 C13          3.9220    -4.1150    -0.1810 ca         1 UNL      -0.094000
     20 C14          4.7030    -3.0890    -0.7030 ca         1 UNL      -0.166000
     21 C15          4.2620    -1.7700    -0.6170 ca         1 UNL       0.143900
     22 F1           5.0630    -0.8150    -1.1080 f          1 UNL      -0.139900
     23 H            0.7910     0.8860     0.3430 ho         1 UNL       0.411000
     24 H1           3.9630     1.0920    -1.2760 h1         1 UNL       0.081200
     25 H2           2.3990     1.8730    -1.1000 h1         1 UNL       0.081200
     26 H3           1.1680    -1.2800    -2.1580 h5         1 UNL       0.082100
     27 H4           2.5330     0.5640    -5.6270 h5         1 UNL       0.070100
     28 H5           1.2440     0.0080     2.5010 ha         1 UNL       0.150500
     29 H6           2.0010     0.9540     4.6450 ha         1 UNL       0.154000
     30 H7           5.6540     2.2440     2.8360 ha         1 UNL       0.154000
     31 H8           4.9500     1.3240     0.6680 ha         1 UNL       0.150500
     32 H9           1.3000    -2.2880     0.9620 ha         1 UNL       0.155000
     33 H10          2.0910    -4.6120     0.8360 ha         1 UNL       0.140000
     34 H11          4.2630    -5.1450    -0.2410 ha         1 UNL       0.140000
     35 H12          5.6550    -3.3050    -1.1780 ha         1 UNL       0.152000
@<TRIPOS>BOND
     1     1     2 1   
     2     2     3 1   
     3     3     4 1   
     4     4     5 1   
     5     5     6 2   
     6     6     7 1   
     7     7     8 2   
     8     4     8 1   
     9     2     9 1   
    10     9    10 ar  
    11    10    11 ar  
    12    11    12 ar  
    13    12    13 1   
    14    12    14 ar  
    15    14    15 ar  
    16     9    15 ar  
    17     2    16 1   
    18    16    17 ar  
    19    17    18 ar  
    20    18    19 ar  
    21    19    20 ar  
    22    20    21 ar  
    23    16    21 ar  
    24    21    22 1   
    25     1    23 1   
    26     3    24 1   
    27     3    25 1   
    28     5    26 1   
    29     7    27 1   
    30    10    28 1   
    31    11    29 1   
    32    14    30 1   
    33    15    31 1   
    34    17    32 1   
    35    18    33 1   
    36    19    34 1   
    37    20    35 1   
@<TRIPOS>SUBSTRUCTURE
     1 UNL         1 TEMP              0 ****  ****    0 ROOT
