@<TRIPOS>MOLECULE
*****
 40 42 0 0 0
SMALL
GASTEIGER

@<TRIPOS>ATOM
      1 C          -2.0103   -1.9589   -0.3913 C.3     1  UNL1       -0.0379
      2 C          -0.8086   -1.6268   -1.2311 C.ar    1  UNL1       -0.0290
      3 C          -1.0008   -1.4587   -2.6160 C.ar    1  UNL1       -0.0571
      4 C           0.0211   -0.9820   -3.4412 C.ar    1  UNL1       -0.0614
      5 C           1.1975   -0.5262   -2.8725 C.ar    1  UNL1       -0.0600
      6 C           1.4020   -0.6911   -1.5152 C.ar    1  UNL1       -0.0399
      7 C           0.4684   -1.3742   -0.7080 C.ar    1  UNL1        0.0413
      8 N           0.8979   -1.8797    0.5758 N.am    1  UNL1       -0.2485
      9 C           0.4126   -1.1695    1.6717 C.2     1  UNL1        0.2541
     10 O          -0.7344   -1.1412    2.0978 O.2     1  UNL1       -0.2695
     11 C           1.3979   -0.1976    2.1537 C.ar    1  UNL1        0.0600
     12 C           1.0208    1.1298    2.2983 C.ar    1  UNL1       -0.0200
     13 C           2.0345    2.0819    2.3876 C.ar    1  UNL1        0.1241
     14 S           1.5616    3.7760    2.3260 S.O2    1  UNL1        0.0574
     15 N           2.1334    4.2801    3.8148 N.3     1  UNL1       -0.2035
     16 O           2.3306    4.4364    1.2959 O.2     1  UNL1       -0.1532
     17 O           0.1283    3.8806    2.4045 O.2     1  UNL1       -0.1532
     18 C           3.3775    1.6943    2.4562 C.ar    1  UNL1        0.0690
     19 CL          4.6940    2.8056    2.6113 Cl      1  UNL1       -0.0815
     20 C           3.7218    0.3357    2.3660 C.ar    1  UNL1       -0.0198
     21 C           2.7297   -0.6095    2.1405 C.ar    1  UNL1        0.0422
     22 N           3.0174   -1.9536    1.8380 N.pl3   1  UNL1       -0.3250
     23 C           2.3042   -2.3585    0.6194 C.3     1  UNL1        0.0921
     24 C           2.3757   -3.8690    0.4366 C.3     1  UNL1       -0.0294
     25 H          -2.8279   -2.3522   -1.0049 H       1  UNL1        0.0278
     26 H          -2.3842   -1.0406    0.0800 H       1  UNL1        0.0278
     27 H          -1.7913   -2.7052    0.3737 H       1  UNL1        0.0278
     28 H          -1.9550   -1.7210   -3.0669 H       1  UNL1        0.0621
     29 H          -0.1250   -0.9295   -4.5137 H       1  UNL1        0.0618
     30 H           1.9746   -0.0783   -3.4905 H       1  UNL1        0.0618
     31 H           2.3132   -0.2743   -1.0918 H       1  UNL1        0.0636
     32 H          -0.0305    1.4026    2.2362 H       1  UNL1        0.0646
     33 H           2.9292    4.9114    3.7317 H       1  UNL1        0.1442
     34 H           1.3814    4.5448    4.4481 H       1  UNL1        0.1442
     35 H           4.7686    0.0451    2.3841 H       1  UNL1        0.0651
     36 H           4.0168   -2.1262    1.7558 H       1  UNL1        0.1479
     37 H           2.8908   -1.9551   -0.2090 H       1  UNL1        0.0709
     38 H           1.9200   -4.4043    1.2735 H       1  UNL1        0.0264
     39 H           3.4204   -4.1904    0.3534 H       1  UNL1        0.0264
     40 H           1.8640   -4.1700   -0.4850 H       1  UNL1        0.0264
@<TRIPOS>BOND
     1     1     2    1
     2     2     3   ar
     3     3     4   ar
     4     4     5   ar
     5     5     6   ar
     6     6     7   ar
     7     2     7   ar
     8     7     8    1
     9     8     9   am
    10     9    10    2
    11     9    11    1
    12    11    12   ar
    13    12    13   ar
    14    13    14    1
    15    14    15    1
    16    14    16    2
    17    14    17    2
    18    13    18   ar
    19    18    19    1
    20    18    20   ar
    21    20    21   ar
    22    11    21   ar
    23    21    22    1
    24    22    23    1
    25     8    23    1
    26    23    24    1
    27     1    25    1
    28     1    26    1
    29     1    27    1
    30     3    28    1
    31     4    29    1
    32     5    30    1
    33     6    31    1
    34    12    32    1
    35    15    33    1
    36    15    34    1
    37    20    35    1
    38    22    36    1
    39    23    37    1
    40    24    38    1
    41    24    39    1
    42    24    40    1
