@<TRIPOS>MOLECULE
*****
   36    39     1     0     0
SMALL
bcc


@<TRIPOS>ATOM
      1 C            0.9490    -0.1040    -0.0080 c3         1 UNL      -0.057800
      2 C1           2.4710    -0.0110    -0.0080 ca         1 UNL      -0.054300
      3 C2           3.1140     1.2610    -0.0100 ca         1 UNL      -0.026000
      4 C3           2.4070     2.4990    -0.0130 ca         1 UNL      -0.118000
      5 C4           3.0380     3.7420    -0.0140 ca         1 UNL      -0.129000
      6 C5           4.4110     3.7920    -0.0120 ca         1 UNL      -0.128000
      7 C6           5.1300     2.5990    -0.0090 ca         1 UNL      -0.120000
      8 C7           4.5250     1.3070    -0.0090 ca         1 UNL      -0.033000
      9 C8           5.2750     0.0730    -0.0080 ca         1 UNL      -0.055300
     10 C9           6.7880     0.1690    -0.0090 c3         1 UNL      -0.060800
     11 C10          4.6520    -1.2470    -0.0070 ca         1 UNL      -0.013000
     12 C11          3.2240    -1.2360    -0.0080 ca         1 UNL      -0.034000
     13 C12          2.5390    -2.4690    -0.0060 ca         1 UNL      -0.117000
     14 C13          3.1780    -3.6990    -0.0070 ca         1 UNL      -0.118000
     15 C14          4.5560    -3.7740    -0.0070 ca         1 UNL      -0.036000
     16 C15          5.1310    -5.0610    -0.0080 ca         1 UNL      -0.120000
     17 C16          6.5060    -5.2410    -0.0080 ca         1 UNL      -0.127000
     18 C17          7.3140    -4.1270    -0.0080 ca         1 UNL      -0.132000
     19 C18          6.7380    -2.8490    -0.0070 ca         1 UNL      -0.121000
     20 C19          5.3320    -2.5840    -0.0070 ca         1 UNL      -0.018000
     21 H            0.4210     0.8490    -0.0050 hc         1 UNL       0.046700
     22 H1           0.6060    -0.6310     0.8890 hc         1 UNL       0.046700
     23 H2           0.6050    -0.6270    -0.9070 hc         1 UNL       0.046700
     24 H3           1.3230     2.5370    -0.0160 ha         1 UNL       0.133000
     25 H4           2.4540     4.6570    -0.0170 ha         1 UNL       0.132000
     26 H5           4.9340     4.7440    -0.0130 ha         1 UNL       0.132000
     27 H6           6.2060     2.7300    -0.0070 ha         1 UNL       0.133000
     28 H7           7.2140     1.1680    -0.0100 hc         1 UNL       0.049367
     29 H8           7.1800    -0.2870    -0.9220 hc         1 UNL       0.049367
     30 H9           7.1810    -0.2860     0.9050 hc         1 UNL       0.049367
     31 H10          1.4530    -2.5130    -0.0090 ha         1 UNL       0.133000
     32 H11          2.5670    -4.5980    -0.0080 ha         1 UNL       0.133000
     33 H12          4.5010    -5.9480    -0.0090 ha         1 UNL       0.133000
     34 H13          6.9380    -6.2370    -0.0080 ha         1 UNL       0.133000
     35 H14          8.3960    -4.2290    -0.0080 ha         1 UNL       0.132000
     36 H15          7.4730    -2.0600    -0.0070 ha         1 UNL       0.138000
@<TRIPOS>BOND
     1     1     2 1   
     2     2     3 ar  
     3     3     4 ar  
     4     4     5 ar  
     5     5     6 ar  
     6     6     7 ar  
     7     7     8 ar  
     8     3     8 ar  
     9     8     9 ar  
    10     9    10 1   
    11     9    11 ar  
    12    11    12 ar  
    13     2    12 ar  
    14    12    13 ar  
    15    13    14 ar  
    16    14    15 ar  
    17    15    16 ar  
    18    16    17 ar  
    19    17    18 ar  
    20    18    19 ar  
    21    19    20 ar  
    22    15    20 ar  
    23    11    20 ar  
    24     1    21 1   
    25     1    22 1   
    26     1    23 1   
    27     4    24 1   
    28     5    25 1   
    29     6    26 1   
    30     7    27 1   
    31    10    28 1   
    32    10    29 1   
    33    10    30 1   
    34    13    31 1   
    35    14    32 1   
    36    16    33 1   
    37    17    34 1   
    38    18    35 1   
    39    19    36 1   
@<TRIPOS>SUBSTRUCTURE
     1 UNL         1 TEMP              0 ****  ****    0 ROOT
