@<TRIPOS>MOLECULE
*****
   36    38     1     0     0
SMALL
bcc


@<TRIPOS>ATOM
      1 C            0.3870    -3.3050    -0.2330 c3         1 UNL      -0.052900
      2 C1           0.8930    -1.9040     0.0730 ce         1 UNL      -0.149400
      3 C2           2.1920    -1.5990     0.3300 c2         1 UNL      -0.174400
      4 C3           2.7840    -0.2790    -0.1330 c3         1 UNL       0.189300
      5 O            1.9550     0.4020    -1.0750 os         1 UNL      -0.405900
      6 C4           1.6660     1.6550    -0.6360 c          1 UNL       0.711600
      7 O1           1.0750     2.4930    -1.3190 o          1 UNL      -0.561500
      8 C5           2.1250     1.8830     0.7700 c3         1 UNL      -0.149700
      9 C6           0.9100     2.0000     1.6810 c3         1 UNL      -0.082100
     10 C7           3.1080     0.7340     0.9630 c3         1 UNL      -0.084700
     11 C8           3.2850     0.1450     2.3570 c3         1 UNL      -0.075400
     12 C9           3.8770    -1.2650     2.2480 c3         1 UNL      -0.073400
     13 C10          2.9060    -2.2550     1.5290 c3         1 UNL       0.051400
     14 C11          3.7340    -3.4700     1.0680 c3         1 UNL      -0.085100
     15 C12          1.8630    -2.6030     2.5990 c2         1 UNL      -0.112200
     16 C13          0.6230    -2.0790     2.5740 ce         1 UNL      -0.236200
     17 C14          0.1250    -1.4810     1.3030 c          1 UNL       0.587500
     18 O2          -0.8950    -0.8140     1.2470 o          1 UNL      -0.475100
     19 H           -0.6960    -3.3750    -0.0620 hc         1 UNL       0.055700
     20 H1           0.5620    -3.5560    -1.2820 hc         1 UNL       0.055700
     21 H2           0.8570    -4.0720     0.3900 hc         1 UNL       0.055700
     22 H3           3.7080    -0.5270    -0.6700 h1         1 UNL       0.070700
     23 H4           2.6850     2.8240     0.8120 hc         1 UNL       0.084700
     24 H5           0.1140     1.3150     1.3990 hc         1 UNL       0.049700
     25 H6           0.4760     3.0040     1.5880 hc         1 UNL       0.049700
     26 H7           1.1480     1.8590     2.7370 hc         1 UNL       0.049700
     27 H8           4.0930     1.1440     0.6950 hc         1 UNL       0.068700
     28 H9           2.3480     0.1030     2.9190 hc         1 UNL       0.053200
     29 H10          3.9600     0.7790     2.9470 hc         1 UNL       0.053200
     30 H11          4.1190    -1.6370     3.2530 hc         1 UNL       0.052200
     31 H12          4.8350    -1.2050     1.7150 hc         1 UNL       0.052200
     32 H13          4.6220    -3.1460     0.5030 hc         1 UNL       0.045033
     33 H14          3.1760    -4.1450     0.4110 hc         1 UNL       0.045033
     34 H15          4.0890    -4.0560     1.9240 hc         1 UNL       0.045033
     35 H16          2.1920    -3.1600     3.4720 ha         1 UNL       0.138000
     36 H17         -0.0650    -2.0990     3.4070 ha         1 UNL       0.156000
@<TRIPOS>BOND
     1     1     2 1   
     2     2     3 2   
     3     3     4 1   
     4     4     5 1   
     5     5     6 1   
     6     6     7 2   
     7     6     8 1   
     8     8     9 1   
     9     8    10 1   
    10     4    10 1   
    11    10    11 1   
    12    11    12 1   
    13    12    13 1   
    14     3    13 1   
    15    13    14 1   
    16    13    15 1   
    17    15    16 2   
    18    16    17 1   
    19     2    17 1   
    20    17    18 2   
    21     1    19 1   
    22     1    20 1   
    23     1    21 1   
    24     4    22 1   
    25     8    23 1   
    26     9    24 1   
    27     9    25 1   
    28     9    26 1   
    29    10    27 1   
    30    11    28 1   
    31    11    29 1   
    32    12    30 1   
    33    12    31 1   
    34    14    32 1   
    35    14    33 1   
    36    14    34 1   
    37    15    35 1   
    38    16    36 1   
@<TRIPOS>SUBSTRUCTURE
     1 UNL         1 TEMP              0 ****  ****    0 ROOT
