@<TRIPOS>MOLECULE
*****
 45 46 0 0 0
SMALL
GASTEIGER

@<TRIPOS>ATOM
      1 O           1.1848    0.1374    0.5249 O.3     1  UNL1       -0.3924
      2 C           2.3193   -0.1879   -0.2731 C.3     1  UNL1        0.0730
      3 C           2.7468    0.9849   -1.1776 C.3     1  UNL1        0.1130
      4 O           3.3224    2.0653   -0.4206 O.3     1  UNL1       -0.3405
      5 C           2.3767    2.8652    0.2987 C.3     1  UNL1        0.1884
      6 O           3.0811    3.8594    1.0725 O.3     1  UNL1       -0.3401
      7 C           4.0487    3.2821    1.9958 C.3     1  UNL1        0.1184
      8 C           3.4049    2.4062    3.0953 C.3     1  UNL1        0.1134
      9 C           4.4462    1.5261    3.8013 C.3     1  UNL1        0.0730
     10 O           3.8351    0.7616    4.8381 O.3     1  UNL1       -0.3924
     11 O           2.6107    3.1903    4.0070 O.3     1  UNL1       -0.3407
     12 C           3.2725    4.2585    4.6542 C.3     1  UNL1        0.1854
     13 O           4.1819    3.7238    5.6224 O.3     1  UNL1       -0.3649
     14 C           3.9415    5.2177    3.6589 C.3     1  UNL1        0.1339
     15 O           4.6871    6.2079    4.3884 O.3     1  UNL1       -0.3841
     16 C           4.8248    4.4337    2.6711 C.3     1  UNL1        0.1144
     17 O           5.3773    5.3154    1.6940 O.3     1  UNL1       -0.3864
     18 C           1.4049    3.5257   -0.7056 C.3     1  UNL1        0.1341
     19 O           2.1059    4.3346   -1.6775 O.3     1  UNL1       -0.3841
     20 C           0.6569    2.4157   -1.4645 C.3     1  UNL1        0.1141
     21 O          -0.2291    2.9864   -2.4419 O.3     1  UNL1       -0.3864
     22 C           1.6622    1.4727   -2.1566 C.3     1  UNL1        0.1119
     23 O           1.0349    0.3608   -2.7981 O.3     1  UNL1       -0.3865
     24 H           1.0865   -0.5751    1.1845 H       1  UNL1        0.2095
     25 H           2.0648   -1.0695   -0.8712 H       1  UNL1        0.0584
     26 H           3.1383   -0.4458    0.4064 H       1  UNL1        0.0584
     27 H           3.5689    0.5887   -1.7876 H       1  UNL1        0.0647
     28 H           1.7827    2.2737    0.9898 H       1  UNL1        0.0938
     29 H           4.7614    2.7024    1.3945 H       1  UNL1        0.0651
     30 H           2.6865    1.7070    2.6625 H       1  UNL1        0.0647
     31 H           5.2701    2.0895    4.2510 H       1  UNL1        0.0584
     32 H           4.8925    0.8229    3.0890 H       1  UNL1        0.0584
     33 H           3.4556    1.4223    5.4552 H       1  UNL1        0.2095
     34 H           2.5193    4.8180    5.2353 H       1  UNL1        0.0935
     35 H           5.0111    4.2251    5.5487 H       1  UNL1        0.2126
     36 H           3.1697    5.7536    3.0918 H       1  UNL1        0.0671
     37 H           5.6362    6.0004    4.3402 H       1  UNL1        0.2101
     38 H           5.6878    4.0318    3.2124 H       1  UNL1        0.0648
     39 H           4.6504    5.5450    1.0845 H       1  UNL1        0.2100
     40 H           0.7058    4.1989   -0.2007 H       1  UNL1        0.0671
     41 H           3.0554    4.1286   -1.5771 H       1  UNL1        0.2101
     42 H           0.0106    1.8573   -0.7821 H       1  UNL1        0.0648
     43 H           0.2857    3.6860   -2.8918 H       1  UNL1        0.2100
     44 H           2.1517    2.0377   -2.9606 H       1  UNL1        0.0647
     45 H           0.1888    0.1958   -2.3447 H       1  UNL1        0.2100
@<TRIPOS>BOND
     1     1     2    1
     2     2     3    1
     3     3     4    1
     4     4     5    1
     5     5     6    1
     6     6     7    1
     7     7     8    1
     8     8     9    1
     9     9    10    1
    10     8    11    1
    11    11    12    1
    12    12    13    1
    13    12    14    1
    14    14    15    1
    15    14    16    1
    16     7    16    1
    17    16    17    1
    18     5    18    1
    19    18    19    1
    20    18    20    1
    21    20    21    1
    22    20    22    1
    23     3    22    1
    24    22    23    1
    25     1    24    1
    26     2    25    1
    27     2    26    1
    28     3    27    1
    29     5    28    1
    30     7    29    1
    31     8    30    1
    32     9    31    1
    33     9    32    1
    34    10    33    1
    35    12    34    1
    36    13    35    1
    37    14    36    1
    38    15    37    1
    39    16    38    1
    40    17    39    1
    41    18    40    1
    42    19    41    1
    43    20    42    1
    44    21    43    1
    45    22    44    1
    46    23    45    1
