@<TRIPOS>MOLECULE
*****
 52 56 0 0 0
SMALL
GASTEIGER

@<TRIPOS>ATOM
      1 C           0.9344   -0.0721   -0.0221 C.1     1  UNL1       -0.1163
      2 C           2.2382   -0.0721   -0.0221 C.1     1  UNL1       -0.0704
      3 C           3.7582   -0.0721   -0.0221 C.3     1  UNL1        0.1317
      4 O           4.0393   -0.0998   -1.3865 O.3     1  UNL1       -0.3760
      5 C           3.8733   -1.4427    0.6900 C.3     1  UNL1       -0.0118
      6 C           4.7544   -1.0783    1.8106 C.3     1  UNL1       -0.0458
      7 C           5.5302    0.0872    1.1999 C.3     1  UNL1       -0.0289
      8 C           6.4556    0.2857   -0.3758 C.3     1  UNL1       -0.0337
      9 C           6.5460   -0.1798   -1.8476 C.3     1  UNL1       -0.0459
     10 C           6.7249   -1.6353   -2.0286 C.3     1  UNL1       -0.0305
     11 C           7.8946   -2.0923   -1.1892 C.2     1  UNL1       -0.0595
     12 C           8.2799   -3.3997   -1.3747 C.2     1  UNL1       -0.0166
     13 C           9.0277   -3.9873   -0.3272 C.ar    1  UNL1        0.1633
     14 O           9.1343   -5.3183   -0.0766 O.2     1  UNL1       -0.3550
     15 N           9.8255   -5.5127    1.1151 N.ar    1  UNL1       -0.0858
     16 C          10.0955   -4.3133    1.5799 C.ar    1  UNL1        0.0738
     17 C           9.6225   -3.2789    0.7387 C.ar    1  UNL1        0.0195
     18 C           9.4801   -1.7914    0.8771 C.3     1  UNL1       -0.0132
     19 C           8.1498   -1.3481    0.2361 C.3     1  UNL1       -0.0035
     20 C           7.0764   -2.2010    0.9306 C.3     1  UNL1       -0.0553
     21 C           7.8423    0.3303    0.1617 C.3     1  UNL1       -0.0285
     22 C           7.4665    1.6465    1.1028 C.3     1  UNL1       -0.0485
     23 C           5.7628    2.2778    0.9356 C.3     1  UNL1       -0.0435
     24 C           4.5141    1.1374    0.9473 C.3     1  UNL1        0.0111
     25 C           3.5183    1.5817    2.0598 C.3     1  UNL1       -0.0558
     26 H          -0.1313   -0.0666   -0.0221 H       1  UNL1        0.1229
     27 H           3.4969   -0.8040   -1.7898 H       1  UNL1        0.2114
     28 H           4.2740   -2.2284    0.0124 H       1  UNL1        0.0303
     29 H           2.9583   -1.8480    1.1548 H       1  UNL1        0.0303
     30 H           5.2870   -1.9076    2.2590 H       1  UNL1        0.0269
     31 H           4.2023   -0.7429    2.7021 H       1  UNL1        0.0269
     32 H           6.1518    0.3395    2.0724 H       1  UNL1        0.0310
     33 H           6.2336    1.3024   -0.7391 H       1  UNL1        0.0307
     34 H           7.4346    0.2959   -2.2943 H       1  UNL1        0.0271
     35 H           5.7667    0.2022   -2.4877 H       1  UNL1        0.0271
     36 H           6.8774   -1.8586   -3.0838 H       1  UNL1        0.0310
     37 H           5.7996   -2.1458   -1.7154 H       1  UNL1        0.0310
     38 H           7.7559   -4.0256   -2.0860 H       1  UNL1        0.0655
     39 H          10.6014   -4.2068    2.5174 H       1  UNL1        0.0867
     40 H          10.3312   -1.2971    0.4113 H       1  UNL1        0.0323
     41 H           9.4613   -1.5385    1.9486 H       1  UNL1        0.0323
     42 H           7.2160   -2.2981    2.0233 H       1  UNL1        0.0238
     43 H           6.1935   -1.7998    0.5748 H       1  UNL1        0.0238
     44 H           6.8343   -3.2140    0.5805 H       1  UNL1        0.0238
     45 H           8.5969    0.7251   -0.5416 H       1  UNL1        0.0312
     46 H           8.0839    2.5042    0.7958 H       1  UNL1        0.0268
     47 H           7.6983    1.4829    2.1631 H       1  UNL1        0.0268
     48 H           5.6828    2.9409    0.0596 H       1  UNL1        0.0272
     49 H           5.6568    2.9536    1.7968 H       1  UNL1        0.0272
     50 H           3.9833    2.2514    2.7887 H       1  UNL1        0.0236
     51 H           3.0731    0.7721    2.6406 H       1  UNL1        0.0236
     52 H           2.6759    2.1313    1.6238 H       1  UNL1        0.0236
@<TRIPOS>BOND
     1     1     2    3
     2     2     3    1
     3     3     4    1
     4     3     5    1
     5     5     6    1
     6     6     7    1
     7     7     8    1
     8     8     9    1
     9     9    10    1
    10    10    11    1
    11    11    12    2
    12    12    13    1
    13    13    14   ar
    14    14    15   ar
    15    15    16   ar
    16    16    17   ar
    17    13    17   ar
    18    17    18    1
    19    18    19    1
    20    11    19    1
    21    19    20    1
    22    19    21    1
    23     8    21    1
    24    21    22    1
    25    22    23    1
    26    23    24    1
    27     7    24    1
    28     3    24    1
    29    24    25    1
    30     1    26    1
    31     4    27    1
    32     5    28    1
    33     5    29    1
    34     6    30    1
    35     6    31    1
    36     7    32    1
    37     8    33    1
    38     9    34    1
    39     9    35    1
    40    10    36    1
    41    10    37    1
    42    12    38    1
    43    16    39    1
    44    18    40    1
    45    18    41    1
    46    20    42    1
    47    20    43    1
    48    20    44    1
    49    21    45    1
    50    22    46    1
    51    22    47    1
    52    23    48    1
    53    23    49    1
    54    25    50    1
    55    25    51    1
    56    25    52    1
