@<TRIPOS>MOLECULE
*****
 35 37 0 0 0
SMALL
GASTEIGER

@<TRIPOS>ATOM
      1 C           1.0092   -0.0524    0.0874 C.3     1  UNL1        0.0084
      2 N           2.4761   -0.0572    0.0214 N.am    1  UNL1       -0.2717
      3 C           3.1845   -0.9087   -0.8472 C.2     1  UNL1        0.2572
      4 O           4.4148   -1.0321   -0.8541 O.2     1  UNL1       -0.2715
      5 C           2.4103   -1.7945   -1.8184 C.3     1  UNL1        0.1678
      6 O           2.1537   -3.0296   -1.1611 O.3     1  UNL1       -0.4619
      7 C           1.9947   -4.0565   -1.9939 C.ar    1  UNL1        0.2578
      8 N           1.5577   -3.9029   -3.2209 N.ar    1  UNL1       -0.2060
      9 C           1.5490   -5.1272   -3.8622 C.ar    1  UNL1        0.0820
     10 C           1.1594   -5.3525   -5.1992 C.ar    1  UNL1       -0.0351
     11 C           1.2159   -6.6435   -5.7320 C.ar    1  UNL1       -0.0597
     12 C           1.6509   -7.7100   -4.9513 C.ar    1  UNL1       -0.0606
     13 C           2.0353   -7.5163   -3.6204 C.ar    1  UNL1       -0.0458
     14 C           1.9715   -6.2150   -3.0935 C.ar    1  UNL1        0.0425
     15 S           2.3573   -5.6540   -1.5111 S.2     1  UNL1       -0.0293
     16 C           3.1582    0.8252    0.9570 C.ar    1  UNL1        0.0360
     17 C           4.5073    1.1839    0.8109 C.ar    1  UNL1       -0.0403
     18 C           5.1461    2.0466    1.7122 C.ar    1  UNL1       -0.0600
     19 C           4.4474    2.5820    2.7854 C.ar    1  UNL1       -0.0616
     20 C           3.1104    2.2510    2.9574 C.ar    1  UNL1       -0.0600
     21 C           2.4759    1.3875    2.0539 C.ar    1  UNL1       -0.0403
     22 H           0.5257   -0.6206   -0.7032 H       1  UNL1        0.0433
     23 H           0.6523    0.9805   -0.0010 H       1  UNL1        0.0433
     24 H           0.6836   -0.4918    1.0348 H       1  UNL1        0.0433
     25 H           3.0664   -1.9308   -2.6910 H       1  UNL1        0.0796
     26 H           1.4924   -1.3384   -2.1945 H       1  UNL1        0.0796
     27 H           0.8233   -4.5172   -5.8048 H       1  UNL1        0.0639
     28 H           0.9161   -6.8119   -6.7639 H       1  UNL1        0.0618
     29 H           1.6940   -8.7096   -5.3812 H       1  UNL1        0.0618
     30 H           2.3777   -8.3493   -3.0135 H       1  UNL1        0.0629
     31 H           5.1100    0.8334   -0.0203 H       1  UNL1        0.0636
     32 H           6.1934    2.2970    1.5622 H       1  UNL1        0.0618
     33 H           4.9431    3.2524    3.4817 H       1  UNL1        0.0618
     34 H           2.5547    2.6581    3.7982 H       1  UNL1        0.0618
     35 H           1.4362    1.1555    2.2611 H       1  UNL1        0.0636
@<TRIPOS>BOND
     1     1     2    1
     2     2     3   am
     3     3     4    2
     4     3     5    1
     5     5     6    1
     6     6     7    1
     7     7     8   ar
     8     8     9   ar
     9     9    10   ar
    10    10    11   ar
    11    11    12   ar
    12    12    13   ar
    13    13    14   ar
    14     9    14   ar
    15    14    15   ar
    16     7    15   ar
    17     2    16    1
    18    16    17   ar
    19    17    18   ar
    20    18    19   ar
    21    19    20   ar
    22    20    21   ar
    23    16    21   ar
    24     1    22    1
    25     1    23    1
    26     1    24    1
    27     5    25    1
    28     5    26    1
    29    10    27    1
    30    11    28    1
    31    12    29    1
    32    13    30    1
    33    17    31    1
    34    18    32    1
    35    19    33    1
    36    20    34    1
    37    21    35    1
