@<TRIPOS>MOLECULE
*****
   31    32     1     0     0
SMALL
bcc


@<TRIPOS>ATOM
      1 C            1.0210    -0.1970    -0.1450 c3         1 UNL      -0.068900
      2 C1           2.4910     0.0650     0.0250 c2         1 UNL       0.134900
      3 C2           3.1150     1.2530    -0.0890 ce         1 UNL      -0.292400
      4 C3           2.4830     2.6040    -0.3070 c          1 UNL       0.694300
      5 O            3.1120     3.4250    -0.9730 o          1 UNL      -0.584100
      6 N            1.3170     2.8470     0.3780 ns         1 UNL      -0.473100
      7 C4           0.5940     4.0710     0.4050 ca         1 UNL       0.070600
      8 C5           0.9590     5.2100    -0.3220 ca         1 UNL      -0.172500
      9 C6           0.2390     6.4050    -0.2020 ca         1 UNL      -0.103500
     10 C7          -0.8740     6.4700     0.6270 ca         1 UNL      -0.160000
     11 C8          -1.2710     5.3360     1.3330 ca         1 UNL      -0.103500
     12 C9          -0.5450     4.1440     1.2200 ca         1 UNL      -0.172500
     13 C10          4.6190     1.3490    -0.0120 c3         1 UNL      -0.020200
     14 C11          5.3780     0.0350     0.0660 c3         1 UNL      -0.113400
     15 C12          4.5350    -1.2200    -0.0440 c3         1 UNL       0.125400
     16 O1           3.1640    -1.1050     0.3140 os         1 UNL      -0.328900
     17 H            0.4640     0.6450    -0.5510 hc         1 UNL       0.064700
     18 H1           0.5800    -0.4920     0.8110 hc         1 UNL       0.064700
     19 H2           0.8770    -1.0280    -0.8520 hc         1 UNL       0.064700
     20 H3           0.9610     2.1160     0.9800 hn         1 UNL       0.316500
     21 H4           1.8150     5.2170    -0.9870 ha         1 UNL       0.149000
     22 H5           0.5580     7.2800    -0.7650 ha         1 UNL       0.132000
     23 H6          -1.4260     7.4010     0.7240 ha         1 UNL       0.132000
     24 H7          -2.1440     5.3860     1.9790 ha         1 UNL       0.132000
     25 H8          -0.8810     3.2810     1.7870 ha         1 UNL       0.149000
     26 H9           4.8990     1.9640     0.8540 hc         1 UNL       0.064200
     27 H10          4.9900     1.8830    -0.8960 hc         1 UNL       0.064200
     28 H11          5.9480     0.0090     1.0020 hc         1 UNL       0.057700
     29 H12          6.1460     0.0080    -0.7220 hc         1 UNL       0.057700
     30 H13          4.9670    -1.9840     0.6150 h1         1 UNL       0.060200
     31 H14          4.5950    -1.6340    -1.0590 h1         1 UNL       0.060200
@<TRIPOS>BOND
     1     1     2 1   
     2     2     3 2   
     3     3     4 1   
     4     4     5 2   
     5     4     6 1   
     6     6     7 1   
     7     7     8 ar  
     8     8     9 ar  
     9     9    10 ar  
    10    10    11 ar  
    11    11    12 ar  
    12     7    12 ar  
    13     3    13 1   
    14    13    14 1   
    15    14    15 1   
    16    15    16 1   
    17     2    16 1   
    18     1    17 1   
    19     1    18 1   
    20     1    19 1   
    21     6    20 1   
    22     8    21 1   
    23     9    22 1   
    24    10    23 1   
    25    11    24 1   
    26    12    25 1   
    27    13    26 1   
    28    13    27 1   
    29    14    28 1   
    30    14    29 1   
    31    15    30 1   
    32    15    31 1   
@<TRIPOS>SUBSTRUCTURE
     1 UNL         1 TEMP              0 ****  ****    0 ROOT
