@<TRIPOS>MOLECULE
*****
 55 58 0 0 0
SMALL
GASTEIGER

@<TRIPOS>ATOM
      1 C           0.8518   -0.2529    1.5799 C.3     1  UNL1       -0.0058
      2 C           2.0453    0.5764    1.8990 C.2     1  UNL1        0.1339
      3 O           1.9837    1.7844    1.6263 O.2     1  UNL1       -0.2974
      4 C           3.3988   -0.0993    2.3221 C.3     1  UNL1        0.0229
      5 C           4.5478   -0.1316    3.3819 C.3     1  UNL1       -0.0427
      6 C           5.7222    0.6178    2.6373 C.3     1  UNL1       -0.0488
      7 C           5.1934    0.8029    1.1859 C.3     1  UNL1       -0.0316
      8 C           6.1328    0.9043    0.0226 C.3     1  UNL1       -0.0306
      9 C           6.8917    2.2135    0.1082 C.3     1  UNL1       -0.0311
     10 C           7.6953    2.3710   -1.1236 C.2     1  UNL1       -0.0839
     11 C           8.1505    1.3285   -1.8356 C.2     1  UNL1       -0.0648
     12 C           9.1792    1.6394   -2.8962 C.3     1  UNL1       -0.0051
     13 C          10.4912    1.0245   -2.4178 C.3     1  UNL1        0.0590
     14 O          10.9158    1.5818   -1.1759 O.3     1  UNL1       -0.3915
     15 C          10.3328   -0.4898   -2.3095 C.3     1  UNL1       -0.0258
     16 C           9.2668   -0.8611   -1.2653 C.3     1  UNL1       -0.0413
     17 C           7.8921   -0.1657   -1.4920 C.3     1  UNL1       -0.0078
     18 C           7.1919   -0.8623   -2.6889 C.3     1  UNL1       -0.0556
     19 C           7.0352   -0.3238   -0.1585 C.3     1  UNL1       -0.0285
     20 C           6.2449   -1.6660   -0.0350 C.3     1  UNL1       -0.0486
     21 C           5.0937   -1.6925    0.9995 C.3     1  UNL1       -0.0464
     22 C           4.2401   -0.3745    1.0145 C.3     1  UNL1       -0.0195
     23 C           3.4640   -0.3534   -0.3203 C.3     1  UNL1       -0.0587
     24 H           0.8070   -0.4390    0.4949 H       1  UNL1        0.0306
     25 H          -0.0384    0.3246    1.8532 H       1  UNL1        0.0306
     26 H           0.8641   -1.1909    2.1250 H       1  UNL1        0.0306
     27 H           3.4807    0.9547    2.6696 H       1  UNL1        0.0383
     28 H           4.8448   -1.1519    3.6503 H       1  UNL1        0.0272
     29 H           4.3154    0.3552    4.3374 H       1  UNL1        0.0272
     30 H           6.6528    0.0449    2.6892 H       1  UNL1        0.0268
     31 H           5.9092    1.5954    3.0959 H       1  UNL1        0.0268
     32 H           4.6097    1.7378    1.1766 H       1  UNL1        0.0309
     33 H           5.5186    0.9920   -0.8853 H       1  UNL1        0.0309
     34 H           7.5514    2.2517    0.9824 H       1  UNL1        0.0310
     35 H           6.1921    3.0544    0.1874 H       1  UNL1        0.0310
     36 H           7.9510    3.3940   -1.3939 H       1  UNL1        0.0572
     37 H           9.3043    2.7236   -3.0164 H       1  UNL1        0.0335
     38 H           8.8678    1.2489   -3.8690 H       1  UNL1        0.0335
     39 H          11.2852    1.2597   -3.1558 H       1  UNL1        0.0596
     40 H          10.1429    1.6079   -0.5661 H       1  UNL1        0.2098
     41 H          11.2822   -0.9416   -2.0130 H       1  UNL1        0.0290
     42 H          10.0575   -0.9029   -3.2845 H       1  UNL1        0.0290
     43 H           9.6603   -0.6018   -0.2777 H       1  UNL1        0.0274
     44 H           9.1448   -1.9550   -1.2591 H       1  UNL1        0.0274
     45 H           7.6719   -0.6529   -3.6488 H       1  UNL1        0.0238
     46 H           6.1417   -0.5644   -2.7784 H       1  UNL1        0.0238
     47 H           7.2204   -1.9549   -2.5793 H       1  UNL1        0.0238
     48 H           7.7352   -0.3122    0.6899 H       1  UNL1        0.0312
     49 H           6.9542   -2.4689    0.2062 H       1  UNL1        0.0268
     50 H           5.7949   -1.9563   -0.9864 H       1  UNL1        0.0268
     51 H           5.5543   -1.9334    1.9603 H       1  UNL1        0.0271
     52 H           4.4390   -2.5492    0.7898 H       1  UNL1        0.0271
     53 H           2.6978   -1.1329   -0.3373 H       1  UNL1        0.0235
     54 H           4.1056   -0.5697   -1.1804 H       1  UNL1        0.0235
     55 H           3.0101    0.6192   -0.5272 H       1  UNL1        0.0235
@<TRIPOS>BOND
     1     1     2    1
     2     2     3    2
     3     2     4    1
     4     4     5    1
     5     5     6    1
     6     6     7    1
     7     7     8    1
     8     8     9    1
     9     9    10    1
    10    10    11    2
    11    11    12    1
    12    12    13    1
    13    13    14    1
    14    13    15    1
    15    15    16    1
    16    16    17    1
    17    11    17    1
    18    17    18    1
    19    17    19    1
    20     8    19    1
    21    19    20    1
    22    20    21    1
    23    21    22    1
    24     4    22    1
    25     7    22    1
    26    22    23    1
    27     1    24    1
    28     1    25    1
    29     1    26    1
    30     4    27    1
    31     5    28    1
    32     5    29    1
    33     6    30    1
    34     6    31    1
    35     7    32    1
    36     8    33    1
    37     9    34    1
    38     9    35    1
    39    10    36    1
    40    12    37    1
    41    12    38    1
    42    13    39    1
    43    14    40    1
    44    15    41    1
    45    15    42    1
    46    16    43    1
    47    16    44    1
    48    18    45    1
    49    18    46    1
    50    18    47    1
    51    19    48    1
    52    20    49    1
    53    20    50    1
    54    21    51    1
    55    21    52    1
    56    23    53    1
    57    23    54    1
    58    23    55    1
