@<TRIPOS>MOLECULE
*****
 20 21 0 0 0
SMALL
GASTEIGER

@<TRIPOS>ATOM
      1 O           1.3224   -0.0236   -0.7141 O.2     1  UNL1       -0.2520
      2 C           2.4444   -0.0878   -0.2231 C.2     1  UNL1        0.3122
      3 N           3.0323   -1.2831    0.0324 N.am    1  UNL1       -0.2390
      4 C           3.9235   -1.4766    1.0577 C.2     1  UNL1        0.2354
      5 O           3.9340   -2.5677    1.6308 O.2     1  UNL1       -0.2742
      6 C           4.8485   -0.2692    1.3900 C.3     1  UNL1        0.1234
      7 C           6.2256   -0.2798    0.6441 C.3     1  UNL1       -0.0305
      8 C           6.8748    0.2375    1.9376 C.3     1  UNL1       -0.0503
      9 C           5.6918   -0.3762    2.7079 C.3     1  UNL1       -0.0305
     10 C           4.0077    1.0365    1.2166 C.2     1  UNL1        0.2354
     11 O           4.1001    2.0471    1.9138 O.2     1  UNL1       -0.2742
     12 N           3.0924    1.0291    0.1937 N.am    1  UNL1       -0.2390
     13 H           2.4390   -2.0794   -0.1606 H       1  UNL1        0.1591
     14 H           6.3085    0.3864   -0.2193 H       1  UNL1        0.0280
     15 H           6.5636   -1.2800    0.3475 H       1  UNL1        0.0280
     16 H           6.9216    1.3310    1.9978 H       1  UNL1        0.0266
     17 H           7.8609   -0.1713    2.1702 H       1  UNL1        0.0266
     18 H           5.3402    0.2111    3.5611 H       1  UNL1        0.0280
     19 H           5.8782   -1.4016    3.0486 H       1  UNL1        0.0280
     20 H           2.5478    1.8779    0.1143 H       1  UNL1        0.1591
@<TRIPOS>BOND
     1     1     2    2
     2     2     3   am
     3     3     4   am
     4     4     5    2
     5     4     6    1
     6     6     7    1
     7     7     8    1
     8     8     9    1
     9     6     9    1
    10     6    10    1
    11    10    11    2
    12    10    12   am
    13     2    12   am
    14     3    13    1
    15     7    14    1
    16     7    15    1
    17     8    16    1
    18     8    17    1
    19     9    18    1
    20     9    19    1
    21    12    20    1
