@<TRIPOS>MOLECULE
*****
 45 48 0 0 0
SMALL
GASTEIGER

@<TRIPOS>ATOM
      1 O          -1.4501    2.1923   -0.1904 O.2     1  UNL1       -0.2834
      2 C          -1.0100    1.0503   -0.1004 C.2     1  UNL1        0.2282
      3 C          -1.9635   -0.0863    0.0016 C.2     1  UNL1        0.1714
      4 O          -3.3049    0.2602    0.0497 O.2     1  UNL1       -0.5029
      5 C          -1.5612   -1.3667    0.0598 C.2     1  UNL1        0.0481
      6 C          -2.5336   -2.5243    0.2398 C.3     1  UNL1       -0.0086
      7 C          -2.2627   -3.2938    1.5456 C.3     1  UNL1       -0.0454
      8 C          -3.2735   -4.4168    1.7553 C.3     1  UNL1       -0.0457
      9 C          -3.3289   -5.3661    0.5465 C.3     1  UNL1       -0.0158
     10 C          -4.3483   -6.4706    0.7705 C.ar    1  UNL1       -0.0442
     11 C          -5.7070   -6.1807    0.9791 C.ar    1  UNL1       -0.0569
     12 C          -6.6274   -7.2032    1.2148 C.ar    1  UNL1       -0.0431
     13 C          -6.1985   -8.5267    1.2372 C.ar    1  UNL1        0.0410
     14 CL         -7.3313   -9.7865    1.5364 Cl      1  UNL1       -0.0835
     15 C          -4.8575   -8.8359    1.0228 C.ar    1  UNL1       -0.0431
     16 C          -3.9358   -7.8117    0.7906 C.ar    1  UNL1       -0.0569
     17 C          -3.5993   -4.5980   -0.7583 C.3     1  UNL1       -0.0457
     18 C          -2.5889   -3.4684   -0.9737 C.3     1  UNL1       -0.0454
     19 C          -0.1029   -1.6765   -0.0216 C.2     1  UNL1        0.1937
     20 O           0.3141   -2.8275   -0.0866 O.2     1  UNL1       -0.2868
     21 C           0.8624   -0.5624   -0.0088 C.ar    1  UNL1        0.0330
     22 C           2.2354   -0.8393    0.0511 C.ar    1  UNL1       -0.0502
     23 C           3.1598    0.2052    0.0789 C.ar    1  UNL1       -0.0610
     24 C           2.7187    1.5275    0.0414 C.ar    1  UNL1       -0.0610
     25 C           1.3527    1.8067   -0.0243 C.ar    1  UNL1       -0.0501
     26 C           0.4264    0.7571   -0.0476 C.ar    1  UNL1        0.0362
     27 H          -3.3223    1.2397   -0.0268 H       1  UNL1        0.2923
     28 H          -3.5475   -2.1124    0.3430 H       1  UNL1        0.0351
     29 H          -2.3075   -2.6072    2.4004 H       1  UNL1        0.0271
     30 H          -1.2589   -3.7320    1.5487 H       1  UNL1        0.0271
     31 H          -4.2567   -3.9696    1.9466 H       1  UNL1        0.0271
     32 H          -3.0064   -4.9776    2.6600 H       1  UNL1        0.0271
     33 H          -2.3356   -5.8285    0.4513 H       1  UNL1        0.0349
     34 H          -6.0600   -5.1517    0.9679 H       1  UNL1        0.0621
     35 H          -7.6722   -6.9579    1.3831 H       1  UNL1        0.0632
     36 H          -4.5217   -9.8691    1.0393 H       1  UNL1        0.0632
     37 H          -2.8908   -8.0698    0.6304 H       1  UNL1        0.0621
     38 H          -4.6098   -4.1705   -0.7531 H       1  UNL1        0.0271
     39 H          -3.5587   -5.2857   -1.6126 H       1  UNL1        0.0271
     40 H          -2.8676   -2.9051   -1.8729 H       1  UNL1        0.0271
     41 H          -1.6085   -3.9138   -1.1749 H       1  UNL1        0.0271
     42 H           2.5881   -1.8692    0.0828 H       1  UNL1        0.0625
     43 H           4.2241   -0.0143    0.1312 H       1  UNL1        0.0618
     44 H           3.4398    2.3419    0.0657 H       1  UNL1        0.0618
     45 H           1.0147    2.8415   -0.0502 H       1  UNL1        0.0625
@<TRIPOS>BOND
     1     1     2    2
     2     2     3    1
     3     3     4    1
     4     3     5    2
     5     5     6    1
     6     6     7    1
     7     7     8    1
     8     8     9    1
     9     9    10    1
    10    10    11   ar
    11    11    12   ar
    12    12    13   ar
    13    13    14    1
    14    13    15   ar
    15    15    16   ar
    16    10    16   ar
    17     9    17    1
    18    17    18    1
    19     6    18    1
    20     5    19    1
    21    19    20    2
    22    19    21    1
    23    21    22   ar
    24    22    23   ar
    25    23    24   ar
    26    24    25   ar
    27    25    26   ar
    28    21    26   ar
    29     2    26    1
    30     4    27    1
    31     6    28    1
    32     7    29    1
    33     7    30    1
    34     8    31    1
    35     8    32    1
    36     9    33    1
    37    11    34    1
    38    12    35    1
    39    15    36    1
    40    16    37    1
    41    17    38    1
    42    17    39    1
    43    18    40    1
    44    18    41    1
    45    22    42    1
    46    23    43    1
    47    24    44    1
    48    25    45    1
