@<TRIPOS>MOLECULE
*****
 38 41 0 0 0
SMALL
GASTEIGER

@<TRIPOS>ATOM
      1 C           1.5309   -0.2828   -0.2738 C.3     1  UNL1       -0.0523
      2 C           2.2964   -0.8457    0.9481 C.3     1  UNL1        0.0333
      3 C           1.5122   -2.0409    1.4911 C.3     1  UNL1       -0.0363
      4 C           1.6446   -3.2753    0.5092 C.3     1  UNL1       -0.0259
      5 C           2.7657   -3.2354   -0.5600 C.ar    1  UNL1       -0.0362
      6 C           3.7594   -2.2270   -0.4590 C.ar    1  UNL1       -0.0396
      7 C           4.7001   -2.0319   -1.4678 C.ar    1  UNL1       -0.0574
      8 C           4.7195   -2.8796   -2.5590 C.ar    1  UNL1       -0.0536
      9 C           3.8217   -3.9531   -2.6524 C.ar    1  UNL1       -0.0142
     10 C           3.9370   -4.8371   -3.7333 C.ar    1  UNL1       -0.0125
     11 C           3.0864   -5.9246   -3.8291 C.ar    1  UNL1        0.1175
     12 O           3.1942   -6.8160   -4.8547 O.3     1  UNL1       -0.5067
     13 C           2.0961   -6.1291   -2.8823 C.ar    1  UNL1       -0.0196
     14 C           1.9586   -5.2458   -1.8067 C.ar    1  UNL1       -0.0503
     15 C           2.8245   -4.1411   -1.6543 C.ar    1  UNL1       -0.0142
     16 C           3.7202   -1.4278    0.7910 C.3     1  UNL1       -0.0031
     17 C           4.7734   -0.4166    1.2293 C.3     1  UNL1       -0.0386
     18 C           4.0348    0.8866    1.4140 C.3     1  UNL1        0.0070
     19 C           2.6425    0.3895    1.7612 C.2     1  UNL1        0.1398
     20 O           1.8556    1.0122    2.4593 O.2     1  UNL1       -0.2968
     21 H           1.2913   -1.0344   -1.0311 H       1  UNL1        0.0239
     22 H           2.0585    0.5382   -0.7677 H       1  UNL1        0.0239
     23 H           0.5637    0.1197    0.0627 H       1  UNL1        0.0239
     24 H           0.4555   -1.8004    1.6576 H       1  UNL1        0.0278
     25 H           1.8941   -2.3243    2.4818 H       1  UNL1        0.0278
     26 H           0.6852   -3.3614   -0.0148 H       1  UNL1        0.0314
     27 H           1.7773   -4.1823    1.1128 H       1  UNL1        0.0314
     28 H           5.4201   -1.2191   -1.4189 H       1  UNL1        0.0621
     29 H           5.4662   -2.7132   -3.3353 H       1  UNL1        0.0624
     30 H           4.7124   -4.6799   -4.4778 H       1  UNL1        0.0660
     31 H           3.9496   -6.5625   -5.4116 H       1  UNL1        0.2921
     32 H           1.4283   -6.9819   -2.9762 H       1  UNL1        0.0654
     33 H           1.1797   -5.4437   -1.0774 H       1  UNL1        0.0625
     34 H           3.8740   -2.2087    1.5561 H       1  UNL1        0.0358
     35 H           5.6584   -0.3496    0.5943 H       1  UNL1        0.0275
     36 H           5.1418   -0.7245    2.2216 H       1  UNL1        0.0275
     37 H           4.0128    1.4450    0.4736 H       1  UNL1        0.0342
     38 H           4.4702    1.4964    2.2084 H       1  UNL1        0.0342
@<TRIPOS>BOND
     1     1     2    1
     2     2     3    1
     3     3     4    1
     4     4     5    1
     5     5     6   ar
     6     6     7   ar
     7     7     8   ar
     8     8     9   ar
     9     9    10   ar
    10    10    11   ar
    11    11    12    1
    12    11    13   ar
    13    13    14   ar
    14    14    15   ar
    15     5    15   ar
    16     9    15   ar
    17     6    16    1
    18     2    16    1
    19    16    17    1
    20    17    18    1
    21    18    19    1
    22     2    19    1
    23    19    20    2
    24     1    21    1
    25     1    22    1
    26     1    23    1
    27     3    24    1
    28     3    25    1
    29     4    26    1
    30     4    27    1
    31     7    28    1
    32     8    29    1
    33    10    30    1
    34    12    31    1
    35    13    32    1
    36    14    33    1
    37    16    34    1
    38    17    35    1
    39    17    36    1
    40    18    37    1
    41    18    38    1
