@<TRIPOS>MOLECULE
*****
   17    18     1     0     0
SMALL
bcc


@<TRIPOS>ATOM
      1 C           -2.4900     0.6430    -0.0130 ca         1 UNL      -0.112000
      2 C1          -2.4510    -0.7490    -0.0090 ca         1 UNL      -0.132000
      3 C2          -1.2240    -1.4130    -0.0020 ca         1 UNL      -0.100000
      4 C3          -0.0210    -0.6840    -0.0010 ca         1 UNL      -0.161300
      5 C4           1.2370    -1.2930    -0.0020 ca         1 UNL       0.422200
      6 N            2.4140    -0.6250     0.0020 nb         1 UNL      -0.664000
      7 C5           2.3400     0.7220     0.0070 ca         1 UNL       0.382200
      8 C6           1.1500     1.4330     0.0060 ca         1 UNL      -0.229300
      9 C7          -0.0570     0.7240     0.0010 ca         1 UNL      -0.013000
     10 C8          -1.3010     1.3770    -0.0060 ca         1 UNL      -0.125000
     11 H           -3.4460     1.1610    -0.0220 ha         1 UNL       0.135000
     12 H1          -3.3770    -1.3190    -0.0110 ha         1 UNL       0.136000
     13 H2          -1.2090    -2.5000     0.0030 ha         1 UNL       0.136000
     14 H3           1.3360    -2.3750    -0.0080 h4         1 UNL       0.022100
     15 H4           3.2970     1.2370     0.0110 h4         1 UNL       0.022100
     16 H5           1.1700     2.5170     0.0100 ha         1 UNL       0.143000
     17 H6          -1.3530     2.4640    -0.0070 ha         1 UNL       0.137000
@<TRIPOS>BOND
     1     1     2 ar  
     2     2     3 ar  
     3     3     4 ar  
     4     4     5 ar  
     5     5     6 ar  
     6     6     7 ar  
     7     7     8 ar  
     8     8     9 ar  
     9     4     9 ar  
    10     9    10 ar  
    11     1    10 ar  
    12     1    11 1   
    13     2    12 1   
    14     3    13 1   
    15     5    14 1   
    16     7    15 1   
    17     8    16 1   
    18    10    17 1   
@<TRIPOS>SUBSTRUCTURE
     1 UNL         1 TEMP              0 ****  ****    0 ROOT
