@<TRIPOS>MOLECULE
*****
 40 43 0 0 0
SMALL
GASTEIGER

@<TRIPOS>ATOM
      1 C           1.3267    0.0837   -0.5144 C.3     1  UNL1       -0.0523
      2 C           1.9263   -0.7755    0.6263 C.3     1  UNL1        0.0327
      3 C           0.9675   -1.9900    0.7606 C.3     1  UNL1       -0.0395
      4 C           1.3051   -3.1230   -0.3099 C.3     1  UNL1       -0.0416
      5 C           2.8042   -3.5618   -0.3533 C.3     1  UNL1        0.0058
      6 C           3.6429   -2.3020   -0.4306 C.2     1  UNL1       -0.0617
      7 C           4.5453   -2.0370   -1.3802 C.2     1  UNL1       -0.0796
      8 C           4.8778   -2.9983   -2.4714 C.3     1  UNL1       -0.0088
      9 C           4.2305   -4.3575   -2.3298 C.ar    1  UNL1       -0.0364
     10 C           4.6833   -5.3893   -3.1755 C.ar    1  UNL1       -0.0164
     11 C           4.1574   -6.6676   -3.0500 C.ar    1  UNL1        0.1171
     12 O           4.5963   -7.7007   -3.8241 O.3     1  UNL1       -0.5068
     13 C           3.1913   -6.9418   -2.0920 C.ar    1  UNL1       -0.0199
     14 C           2.7149   -5.9211   -1.2655 C.ar    1  UNL1       -0.0543
     15 C           3.2196   -4.6145   -1.3744 C.ar    1  UNL1       -0.0366
     16 C           3.3408   -1.4187    0.7364 C.3     1  UNL1       -0.0069
     17 C           4.3865   -0.4972    1.3122 C.3     1  UNL1       -0.0389
     18 C           3.6907    0.8312    1.3457 C.3     1  UNL1        0.0070
     19 C           2.2698    0.3298    1.6207 C.2     1  UNL1        0.1398
     20 O           1.5071    0.8086    2.4569 O.2     1  UNL1       -0.2968
     21 H           1.0416   -0.4740   -1.4076 H       1  UNL1        0.0239
     22 H           1.9212    0.9516   -0.8119 H       1  UNL1        0.0239
     23 H           0.3811    0.5202   -0.1306 H       1  UNL1        0.0239
     24 H          -0.0787   -1.6858    0.6063 H       1  UNL1        0.0275
     25 H           1.0105   -2.4072    1.7703 H       1  UNL1        0.0275
     26 H           1.0181   -2.7676   -1.3088 H       1  UNL1        0.0274
     27 H           0.6696   -3.9914   -0.1035 H       1  UNL1        0.0274
     28 H           3.0257   -4.0318    0.6184 H       1  UNL1        0.0394
     29 H           5.1026   -1.1029   -1.3798 H       1  UNL1        0.0575
     30 H           5.9675   -3.1306   -2.4695 H       1  UNL1        0.0356
     31 H           4.5908   -2.5598   -3.4326 H       1  UNL1        0.0356
     32 H           5.4615   -5.1767   -3.9054 H       1  UNL1        0.0657
     33 H           5.2745   -7.3643   -4.4358 H       1  UNL1        0.2921
     34 H           2.8132   -7.9562   -1.9829 H       1  UNL1        0.0654
     35 H           1.9830   -6.1669   -0.5013 H       1  UNL1        0.0622
     36 H           3.2508   -2.1416    1.5683 H       1  UNL1        0.0355
     37 H           5.3607   -0.5150    0.8163 H       1  UNL1        0.0275
     38 H           4.5796   -0.8027    2.3555 H       1  UNL1        0.0275
     39 H           3.7575    1.2974    0.3570 H       1  UNL1        0.0342
     40 H           4.0877    1.5026    2.1000 H       1  UNL1        0.0342
@<TRIPOS>BOND
     1     1     2    1
     2     2     3    1
     3     3     4    1
     4     4     5    1
     5     5     6    1
     6     6     7    2
     7     7     8    1
     8     8     9    1
     9     9    10   ar
    10    10    11   ar
    11    11    12    1
    12    11    13   ar
    13    13    14   ar
    14    14    15   ar
    15     9    15   ar
    16     5    15    1
    17     6    16    1
    18     2    16    1
    19    16    17    1
    20    17    18    1
    21    18    19    1
    22     2    19    1
    23    19    20    2
    24     1    21    1
    25     1    22    1
    26     1    23    1
    27     3    24    1
    28     3    25    1
    29     4    26    1
    30     4    27    1
    31     5    28    1
    32     7    29    1
    33     8    30    1
    34     8    31    1
    35    10    32    1
    36    12    33    1
    37    13    34    1
    38    14    35    1
    39    16    36    1
    40    17    37    1
    41    17    38    1
    42    18    39    1
    43    18    40    1
