@<TRIPOS>MOLECULE
*****
   43    45     1     0     0
SMALL
bcc


@<TRIPOS>ATOM
      1 O            1.1270     0.6820     0.2190 o          1 UNL      -0.533000
      2 C            2.2420     0.1960     0.1250 c          1 UNL       0.648700
      3 O1           2.8800    -0.5080     1.1230 os         1 UNL      -0.455900
      4 C1           2.7020    -0.3150     2.5620 c3         1 UNL       0.109400
      5 C2           3.5090     0.8760     3.0740 c3         1 UNL       0.075100
      6 O2           3.3530     1.0900     4.4770 oh         1 UNL      -0.589800
      7 C3           4.9930     0.6230     2.7980 c3         1 UNL       0.096400
      8 O3           5.7930     1.7040     3.2550 oh         1 UNL      -0.601800
      9 C4           2.9110     0.3140    -1.1490 ca         1 UNL      -0.194600
     10 C5           2.6620     1.3970    -1.9810 ca         1 UNL      -0.046000
     11 C6           3.4230     1.6850    -3.1140 ca         1 UNL      -0.176000
     12 C7           4.5170     0.8670    -3.3790 ca         1 UNL      -0.063000
     13 C8           4.7660    -0.2820    -2.5270 ca         1 UNL      -0.192000
     14 C9           3.8010    -0.6780    -1.4740 ca         1 UNL       0.217600
     15 N            3.5200    -2.0060    -0.7010 nu         1 UNL      -0.600000
     16 C10          4.4930    -3.3030    -0.2360 ca         1 UNL       0.103600
     17 C11          5.4780    -4.6670     0.2590 ca         1 UNL      -0.173300
     18 C12          5.3590    -5.9550     0.7890 ca         1 UNL       0.374200
     19 N1           4.3150    -5.3950     0.6580 nb         1 UNL      -0.583000
     20 C13          3.0600    -5.2000     0.6320 ca         1 UNL       0.350600
     21 C14          2.3440    -6.2500     0.8820 ca         1 UNL      -0.181300
     22 C15          1.0320    -5.9990     0.9190 ca         1 UNL       0.033400
     23 Cl           0.0700    -7.1720     1.6990 cl         1 UNL      -0.080400
     24 C16          0.5840    -4.7120     0.5660 ca         1 UNL      -0.130000
     25 C17          1.5290    -3.7080     0.2380 ca         1 UNL      -0.079000
     26 C18          2.9880    -3.9540     0.1760 ca         1 UNL      -0.134300
     27 H            3.0040    -1.2440     3.0390 h1         1 UNL       0.074200
     28 H1           1.6850    -0.0940     2.8890 h1         1 UNL       0.074200
     29 H2           3.1530     1.7810     2.5890 h1         1 UNL       0.099700
     30 H3           3.6820     0.3040     4.9450 ho         1 UNL       0.410000
     31 H4           5.1610     0.4980     1.7260 h1         1 UNL       0.059200
     32 H5           5.3440    -0.2800     3.3140 h1         1 UNL       0.059200
     33 H6           5.4240     2.5170     2.8680 ho         1 UNL       0.411000
     34 H7           1.7900     2.0110    -1.7520 ha         1 UNL       0.156000
     35 H8           3.1660     2.5440    -3.7350 ha         1 UNL       0.144000
     36 H9           5.1150     1.1290    -4.2690 ha         1 UNL       0.141000
     37 H10          5.7720    -0.6910    -2.7360 ha         1 UNL       0.152000
     38 H11          2.6090    -2.2420    -1.1030 hn         1 UNL       0.446800
     39 H12          6.6310    -4.8290     0.1410 ha         1 UNL       0.202000
     40 H13          4.9780    -6.8950     1.1960 h4         1 UNL      -0.085900
     41 H14          2.8580    -7.1410     1.2220 ha         1 UNL       0.160000
     42 H15         -0.4840    -4.4750     0.5890 ha         1 UNL       0.154000
     43 H16          1.0880    -2.7280     0.0260 ha         1 UNL       0.148000
@<TRIPOS>BOND
     1     1     2 2   
     2     2     3 1   
     3     3     4 1   
     4     4     5 1   
     5     5     6 1   
     6     5     7 1   
     7     7     8 1   
     8     2     9 1   
     9     9    10 ar  
    10    10    11 ar  
    11    11    12 ar  
    12    12    13 ar  
    13    13    14 ar  
    14     9    14 ar  
    15    14    15 1   
    16    15    16 1   
    17    16    17 ar  
    18    17    18 ar  
    19    18    19 ar  
    20    19    20 ar  
    21    20    21 ar  
    22    21    22 ar  
    23    22    23 1   
    24    22    24 ar  
    25    24    25 ar  
    26    25    26 ar  
    27    16    26 ar  
    28    20    26 ar  
    29     4    27 1   
    30     4    28 1   
    31     5    29 1   
    32     6    30 1   
    33     7    31 1   
    34     7    32 1   
    35     8    33 1   
    36    10    34 1   
    37    11    35 1   
    38    12    36 1   
    39    13    37 1   
    40    15    38 1   
    41    17    39 1   
    42    18    40 1   
    43    21    41 1   
    44    24    42 1   
    45    25    43 1   
@<TRIPOS>SUBSTRUCTURE
     1 UNL         1 TEMP              0 ****  ****    0 ROOT
