@<TRIPOS>MOLECULE
*****
 40 41 0 0 0
SMALL
GASTEIGER

@<TRIPOS>ATOM
      1 C           2.2856   -1.4253    0.5521 C.3     1  UNL1       -0.0612
      2 C           2.4616   -0.0381   -0.0486 C.3     1  UNL1       -0.0297
      3 C           2.9315    1.0401    0.9192 C.2     1  UNL1       -0.0368
      4 C           2.1244    1.9393    1.5396 C.2     1  UNL1       -0.0368
      5 C           2.5875    3.2163    2.2194 C.3     1  UNL1       -0.0297
      6 C           2.7548    3.1281    3.7284 C.3     1  UNL1       -0.0612
      7 C           0.6549    1.7826    1.4786 C.ar    1  UNL1       -0.0214
      8 C          -0.0066    0.9951    2.4338 C.ar    1  UNL1       -0.0509
      9 C          -1.3848    0.7830    2.3455 C.ar    1  UNL1       -0.0196
     10 C          -2.0982    1.3588    1.3000 C.ar    1  UNL1        0.1169
     11 O          -3.4381    1.1513    1.1538 O.3     1  UNL1       -0.5068
     12 C          -1.4620    2.1605    0.3575 C.ar    1  UNL1       -0.0196
     13 C          -0.0845    2.3753    0.4492 C.ar    1  UNL1       -0.0509
     14 C           4.4039    1.1083    1.0356 C.ar    1  UNL1       -0.0214
     15 C           5.0583    0.4193    2.0671 C.ar    1  UNL1       -0.0509
     16 C           6.4543    0.3901    2.1263 C.ar    1  UNL1       -0.0196
     17 C           7.1922    1.0600    1.1546 C.ar    1  UNL1        0.1169
     18 O           8.5553    1.0267    1.1484 O.3     1  UNL1       -0.5068
     19 C           6.5573    1.7733    0.1445 C.ar    1  UNL1       -0.0196
     20 C           5.1640    1.7982    0.0832 C.ar    1  UNL1       -0.0509
     21 H           1.8053   -2.0814   -0.1823 H       1  UNL1        0.0233
     22 H           1.6577   -1.4061    1.4468 H       1  UNL1        0.0233
     23 H           3.2491   -1.8736    0.8108 H       1  UNL1        0.0233
     24 H           1.5192    0.2578   -0.5225 H       1  UNL1        0.0311
     25 H           3.1690   -0.1130   -0.8850 H       1  UNL1        0.0311
     26 H           1.8811    4.0275    1.9956 H       1  UNL1        0.0311
     27 H           3.5346    3.5530    1.7826 H       1  UNL1        0.0311
     28 H           1.7877    3.0397    4.2329 H       1  UNL1        0.0233
     29 H           3.2346    4.0423    4.0964 H       1  UNL1        0.0233
     30 H           3.3808    2.2808    4.0205 H       1  UNL1        0.0233
     31 H           0.5541    0.5332    3.2434 H       1  UNL1        0.0625
     32 H          -1.8773    0.1652    3.0905 H       1  UNL1        0.0654
     33 H          -3.7188    0.4825    1.7996 H       1  UNL1        0.2921
     34 H          -2.0332    2.6060   -0.4501 H       1  UNL1        0.0654
     35 H           0.4116    2.9843   -0.3024 H       1  UNL1        0.0625
     36 H           4.4817   -0.1191    2.8164 H       1  UNL1        0.0625
     37 H           6.9425   -0.1643    2.9214 H       1  UNL1        0.0654
     38 H           8.8532    0.4100    1.8366 H       1  UNL1        0.2921
     39 H           7.1464    2.3038   -0.6019 H       1  UNL1        0.0654
     40 H           4.6724    2.3430   -0.7188 H       1  UNL1        0.0625
@<TRIPOS>BOND
     1     1     2    1
     2     2     3    1
     3     3     4    2
     4     4     5    1
     5     5     6    1
     6     4     7    1
     7     7     8   ar
     8     8     9   ar
     9     9    10   ar
    10    10    11    1
    11    10    12   ar
    12    12    13   ar
    13     7    13   ar
    14     3    14    1
    15    14    15   ar
    16    15    16   ar
    17    16    17   ar
    18    17    18    1
    19    17    19   ar
    20    19    20   ar
    21    14    20   ar
    22     1    21    1
    23     1    22    1
    24     1    23    1
    25     2    24    1
    26     2    25    1
    27     5    26    1
    28     5    27    1
    29     6    28    1
    30     6    29    1
    31     6    30    1
    32     8    31    1
    33     9    32    1
    34    11    33    1
    35    12    34    1
    36    13    35    1
    37    15    36    1
    38    16    37    1
    39    18    38    1
    40    19    39    1
    41    20    40    1
