@<TRIPOS>MOLECULE
*****
   45    48     1     0     0
SMALL
bcc


@<TRIPOS>ATOM
      1 O           -1.4500     2.1920    -0.1900 o          1 UNL      -0.524100
      2 C           -1.0100     1.0500    -0.1000 c          1 UNL       0.556900
      3 C1          -1.9640    -0.0860     0.0020 cc         1 UNL       0.046900
      4 O1          -3.3050     0.2600     0.0500 oh         1 UNL      -0.484100
      5 C2          -1.5610    -1.3670     0.0600 cd         1 UNL      -0.176400
      6 C3          -2.5340    -2.5240     0.2400 c3         1 UNL      -0.012500
      7 C4          -2.2630    -3.2940     1.5460 c3         1 UNL      -0.076400
      8 C5          -3.2730    -4.4170     1.7550 c3         1 UNL      -0.068400
      9 C6          -3.3290    -5.3660     0.5460 c3         1 UNL      -0.024400
     10 C7          -4.3480    -6.4710     0.7700 ca         1 UNL      -0.070300
     11 C8          -5.7070    -6.1810     0.9790 ca         1 UNL      -0.119500
     12 C9          -6.6270    -7.2030     1.2150 ca         1 UNL      -0.123500
     13 C10         -6.1990    -8.5270     1.2370 ca         1 UNL       0.013400
     14 Cl          -7.3310    -9.7870     1.5360 cl         1 UNL      -0.099400
     15 C11         -4.8570    -8.8360     1.0230 ca         1 UNL      -0.123500
     16 C12         -3.9360    -7.8120     0.7910 ca         1 UNL      -0.119500
     17 C13         -3.5990    -4.5980    -0.7580 c3         1 UNL      -0.068400
     18 C14         -2.5890    -3.4680    -0.9740 c3         1 UNL      -0.076400
     19 C15         -0.1030    -1.6770    -0.0220 c          1 UNL       0.583900
     20 O2           0.3140    -2.8280    -0.0870 o          1 UNL      -0.518100
     21 C16          0.8620    -0.5620    -0.0090 ca         1 UNL      -0.125600
     22 C17          2.2350    -0.8390     0.0510 ca         1 UNL      -0.088000
     23 C18          3.1600     0.2050     0.0790 ca         1 UNL      -0.107000
     24 C19          2.7190     1.5280     0.0410 ca         1 UNL      -0.121000
     25 C20          1.3530     1.8070    -0.0240 ca         1 UNL      -0.077000
     26 C21          0.4260     0.7570    -0.0480 ca         1 UNL      -0.139600
     27 H           -3.3220     1.2400    -0.0270 ho         1 UNL       0.445000
     28 H1          -3.5470    -2.1120     0.3430 hc         1 UNL       0.071700
     29 H2          -2.3080    -2.6070     2.4000 hc         1 UNL       0.052700
     30 H3          -1.2590    -3.7320     1.5490 hc         1 UNL       0.052700
     31 H4          -4.2570    -3.9700     1.9470 hc         1 UNL       0.044200
     32 H5          -3.0060    -4.9780     2.6600 hc         1 UNL       0.044200
     33 H6          -2.3360    -5.8290     0.4510 hc         1 UNL       0.059700
     34 H7          -6.0600    -5.1520     0.9680 ha         1 UNL       0.138000
     35 H8          -7.6720    -6.9580     1.3830 ha         1 UNL       0.145500
     36 H9          -4.5220    -9.8690     1.0390 ha         1 UNL       0.145500
     37 H10         -2.8910    -8.0700     0.6300 ha         1 UNL       0.138000
     38 H11         -4.6100    -4.1700    -0.7530 hc         1 UNL       0.044200
     39 H12         -3.5590    -5.2860    -1.6130 hc         1 UNL       0.044200
     40 H13         -2.8680    -2.9050    -1.8730 hc         1 UNL       0.052700
     41 H14         -1.6090    -3.9140    -1.1750 hc         1 UNL       0.052700
     42 H15          2.5880    -1.8690     0.0830 ha         1 UNL       0.164000
     43 H16          4.2240    -0.0140     0.1310 ha         1 UNL       0.144000
     44 H17          3.4400     2.3420     0.0660 ha         1 UNL       0.145000
     45 H18          1.0150     2.8410    -0.0500 ha         1 UNL       0.160000
@<TRIPOS>BOND
     1     1     2 2   
     2     2     3 1   
     3     3     4 1   
     4     3     5 2   
     5     5     6 1   
     6     6     7 1   
     7     7     8 1   
     8     8     9 1   
     9     9    10 1   
    10    10    11 ar  
    11    11    12 ar  
    12    12    13 ar  
    13    13    14 1   
    14    13    15 ar  
    15    15    16 ar  
    16    10    16 ar  
    17     9    17 1   
    18    17    18 1   
    19     6    18 1   
    20     5    19 1   
    21    19    20 2   
    22    19    21 1   
    23    21    22 ar  
    24    22    23 ar  
    25    23    24 ar  
    26    24    25 ar  
    27    25    26 ar  
    28    21    26 ar  
    29     2    26 1   
    30     4    27 1   
    31     6    28 1   
    32     7    29 1   
    33     7    30 1   
    34     8    31 1   
    35     8    32 1   
    36     9    33 1   
    37    11    34 1   
    38    12    35 1   
    39    15    36 1   
    40    16    37 1   
    41    17    38 1   
    42    17    39 1   
    43    18    40 1   
    44    18    41 1   
    45    22    42 1   
    46    23    43 1   
    47    24    44 1   
    48    25    45 1   
@<TRIPOS>SUBSTRUCTURE
     1 UNL         1 TEMP              0 ****  ****    0 ROOT
