@<TRIPOS>MOLECULE
*****
   72    77     1     0     0
SMALL
bcc


@<TRIPOS>ATOM
      1 C            2.1880    -0.1450     1.8750 c3         1 UNL      -0.091100
      2 C1           3.4220     0.0510     0.9430 c3         1 UNL      -0.095700
      3 C2           3.6710     1.5580     0.7560 c3         1 UNL       0.129400
      4 O            2.4500     2.2050     0.3520 os         1 UNL      -0.410600
      5 C3           1.9420     1.7170    -0.8900 c3         1 UNL       0.108100
      6 C4           0.4190     2.2080    -1.1220 c3         1 UNL      -0.062400
      7 C5          -0.0550     1.7360    -2.5940 c3         1 UNL      -0.072000
      8 C6           0.7480     2.8140    -3.3760 c3         1 UNL      -0.088100
      9 C7           0.2470     0.2090    -2.3460 c3         1 UNL       0.129100
     10 C8          -0.6920    -0.8090    -2.8970 c3         1 UNL      -0.070400
     11 C9          -1.5290     0.0410    -3.7700 c3         1 UNL      -0.053700
     12 C10         -0.9160    -0.0790    -5.2200 c3         1 UNL      -0.013500
     13 C11          0.1360     0.9530    -5.6320 c2         1 UNL      -0.152200
     14 C12         -0.0010     1.7870    -6.6910 c2         1 UNL      -0.112400
     15 C13          0.4530     3.2310    -6.7790 c3         1 UNL      -0.071200
     16 C14         -0.7320     4.1060    -7.2520 c3         1 UNL       0.142100
     17 O1          -0.3740     5.4910    -7.2390 oh         1 UNL      -0.596800
     18 C15         -1.1920     3.7010    -8.6450 c3         1 UNL      -0.109400
     19 C16         -1.6060     2.2360    -8.6990 c3         1 UNL      -0.065400
     20 C17         -0.6860     1.2630    -7.9390 c3         1 UNL      -0.003800
     21 C18          0.5190     0.8960    -8.8610 c3         1 UNL      -0.084100
     22 C19         -1.5290     0.0310    -7.5740 c3         1 UNL      -0.067400
     23 C20         -2.1000     0.1100    -6.1310 c3         1 UNL      -0.050700
     24 C21         -2.8840     1.3720    -5.6040 c3         1 UNL      -0.069400
     25 C22         -2.2330     2.2680    -4.4340 c3         1 UNL      -0.066400
     26 C23         -1.5800     1.5180    -3.1910 c3         1 UNL      -0.029000
     27 C24         -2.5020     1.8450    -2.0030 c3         1 UNL      -0.089100
     28 O2           1.5980    -0.2000    -2.3110 os         1 UNL      -0.396600
     29 C25          1.9930     0.1610    -1.0010 c3         1 UNL       0.110100
     30 C26          3.2260    -0.5180    -0.4690 c3         1 UNL      -0.073400
     31 H            2.3830     0.2850     2.8610 hc         1 UNL       0.038700
     32 H1           1.9350    -1.2000     1.9770 hc         1 UNL       0.038700
     33 H2           1.2900     0.3670     1.5190 hc         1 UNL       0.038700
     34 H3           4.2920    -0.4330     1.4050 hc         1 UNL       0.053700
     35 H4           4.4550     1.7300    -0.0080 h1         1 UNL       0.048700
     36 H5           4.0020     2.0060     1.6800 h1         1 UNL       0.048700
     37 H6           2.5830     2.1280    -1.6820 h1         1 UNL       0.049700
     38 H7           0.3450     3.2930    -0.9760 hc         1 UNL       0.057700
     39 H8          -0.1980     1.7910    -0.3150 hc         1 UNL       0.057700
     40 H9           1.3240     3.5050    -2.7430 hc         1 UNL       0.041700
     41 H10          0.0670     3.5220    -3.8510 hc         1 UNL       0.041700
     42 H11          1.5230     2.4700    -4.0520 hc         1 UNL       0.041700
     43 H12         -0.1650     0.0700    -1.3330 h1         1 UNL       0.039700
     44 H13         -1.3260    -1.2300    -2.1040 hc         1 UNL       0.056200
     45 H14         -0.2060    -1.6700    -3.3660 hc         1 UNL       0.056200
     46 H15         -2.5420    -0.3930    -3.7500 hc         1 UNL       0.045700
     47 H16         -0.4840    -1.0730    -5.3690 hc         1 UNL       0.053700
     48 H17          0.9360     1.0480    -4.9320 ha         1 UNL       0.130000
     49 H18          1.3030     3.3430    -7.4570 hc         1 UNL       0.051700
     50 H19          0.7980     3.6210    -5.8240 hc         1 UNL       0.051700
     51 H20         -1.5840     4.0200    -6.5750 h1         1 UNL       0.079700
     52 H21          0.2700     5.6330    -7.9240 ho         1 UNL       0.395000
     53 H22         -0.4000     3.8930    -9.3740 hc         1 UNL       0.046700
     54 H23         -2.0440     4.3200    -8.9580 hc         1 UNL       0.046700
     55 H24         -1.6780     1.9240    -9.7510 hc         1 UNL       0.044700
     56 H25         -2.6340     2.1610    -8.3310 hc         1 UNL       0.044700
     57 H26          1.0120     1.7980    -9.2460 hc         1 UNL       0.035700
     58 H27          0.2040     0.2960    -9.7180 hc         1 UNL       0.035700
     59 H28          1.2850     0.3330    -8.3200 hc         1 UNL       0.035700
     60 H29         -0.8860    -0.8670    -7.6300 hc         1 UNL       0.041700
     61 H30         -2.3270    -0.1570    -8.2970 hc         1 UNL       0.041700
     62 H31         -2.7680    -0.7610    -6.0240 hc         1 UNL       0.041700
     63 H32         -3.1910     2.0240    -6.4200 hc         1 UNL       0.038700
     64 H33         -3.8310     0.9880    -5.1960 hc         1 UNL       0.038700
     65 H34         -3.0640     2.9000    -4.0890 hc         1 UNL       0.047700
     66 H35         -1.5350     2.9740    -4.8580 hc         1 UNL       0.047700
     67 H36         -3.5500     1.6130    -2.1980 hc         1 UNL       0.036033
     68 H37         -2.4430     2.9350    -1.8200 hc         1 UNL       0.036033
     69 H38         -2.2130     1.3590    -1.0700 hc         1 UNL       0.036033
     70 H39          1.2470    -0.2670    -0.3320 h1         1 UNL       0.052700
     71 H40          4.0960    -0.3530    -1.1140 hc         1 UNL       0.056700
     72 H41          3.0720    -1.6040    -0.4440 hc         1 UNL       0.056700
@<TRIPOS>BOND
     1     1     2 1   
     2     2     3 1   
     3     3     4 1   
     4     4     5 1   
     5     5     6 1   
     6     6     7 1   
     7     7     8 1   
     8     7     9 1   
     9     9    10 1   
    10    10    11 1   
    11    11    12 1   
    12    12    13 1   
    13    13    14 2   
    14    14    15 1   
    15    15    16 1   
    16    16    17 1   
    17    16    18 1   
    18    18    19 1   
    19    19    20 1   
    20    14    20 1   
    21    20    21 1   
    22    20    22 1   
    23    22    23 1   
    24    12    23 1   
    25    23    24 1   
    26    24    25 1   
    27    25    26 1   
    28    11    26 1   
    29     7    26 1   
    30    26    27 1   
    31     9    28 1   
    32    28    29 1   
    33     5    29 1   
    34    29    30 1   
    35     2    30 1   
    36     1    31 1   
    37     1    32 1   
    38     1    33 1   
    39     2    34 1   
    40     3    35 1   
    41     3    36 1   
    42     5    37 1   
    43     6    38 1   
    44     6    39 1   
    45     8    40 1   
    46     8    41 1   
    47     8    42 1   
    48     9    43 1   
    49    10    44 1   
    50    10    45 1   
    51    11    46 1   
    52    12    47 1   
    53    13    48 1   
    54    15    49 1   
    55    15    50 1   
    56    16    51 1   
    57    17    52 1   
    58    18    53 1   
    59    18    54 1   
    60    19    55 1   
    61    19    56 1   
    62    21    57 1   
    63    21    58 1   
    64    21    59 1   
    65    22    60 1   
    66    22    61 1   
    67    23    62 1   
    68    24    63 1   
    69    24    64 1   
    70    25    65 1   
    71    25    66 1   
    72    27    67 1   
    73    27    68 1   
    74    27    69 1   
    75    29    70 1   
    76    30    71 1   
    77    30    72 1   
@<TRIPOS>SUBSTRUCTURE
     1 UNL         1 TEMP              0 ****  ****    0 ROOT
