@<TRIPOS>MOLECULE
*****
 31 33 0 0 0
SMALL
GASTEIGER

@<TRIPOS>ATOM
      1 O5*         1.0504    0.2513   -0.2130 O.3     1    I1       -0.3924
      2 C5*         2.4442    0.0358    0.0263 C.3     1    I1        0.0730
      3 C4*         2.9248    0.8676    1.2177 C.3     1    I1        0.1126
      4 O4*         2.2969    0.4095    2.4338 O.3     1    I1       -0.3457
      5 C1*         2.0742    1.5652    3.2723 C.3     1    I1        0.1667
      6 N9          2.5356    1.2677    4.6094 N.ar    1    I1       -0.2855
      7 C8          1.7667    1.2617    5.7450 C.ar    1    I1        0.1005
      8 N7          2.4784    0.9987    6.8251 N.ar    1    I1       -0.2287
      9 C5          3.7587    0.8115    6.3553 C.ar    1    I1        0.1690
     10 C6          4.9716    0.5399    6.9860 C.ar    1    I1        0.2437
     11 O6          5.0764    0.4072    8.3465 O.3     1    I1       -0.4908
     12 N1          6.1047    0.4216    6.2680 N.ar    1    I1       -0.1996
     13 C2          6.0059    0.5769    4.9324 C.ar    1    I1        0.1222
     14 N3          4.9055    0.8491    4.1968 N.ar    1    I1       -0.2158
     15 C4          3.8120    0.9493    4.9792 C.ar    1    I1        0.1693
     16 C2*         2.7029    2.7964    2.5818 C.3     1    I1        0.1285
     17 O2*         4.0587    3.1039    2.9121 O.3     1    I1       -0.3847
     18 C3*         2.6309    2.3729    1.1253 C.3     1    I1        0.1135
     19 O3*         1.3230    2.6877    0.6454 O.3     1    I1       -0.3864
     20 H5*         0.7925   -0.3571   -0.9302 H       1    I1        0.2095
     21 H5*1        2.9886    0.3194   -0.8795 H       1    I1        0.0584
     22 H5*2        2.5888   -1.0317    0.2206 H       1    I1        0.0584
     23 H4*         4.0008    0.7010    1.3516 H       1    I1        0.0647
     24 H1*         0.9881    1.6922    3.3169 H       1    I1        0.0866
     25 H8          0.7020    1.4585    5.7316 H       1    I1        0.1030
     26 H6          4.1686    0.5471    8.6730 H       1    I1        0.2938
     27 H2          6.9368    0.4853    4.3780 H       1    I1        0.1049
     28 H2*         2.1114    3.6922    2.7949 H       1    I1        0.0665
     29 H2*         4.5402    2.2747    3.1134 H       1    I1        0.2101
     30 H3*         3.3669    2.8748    0.4880 H       1    I1        0.0647
     31 H3*         0.9112    1.8546    0.3234 H       1    I1        0.2100
@<TRIPOS>BOND
     1     1     2    1
     2     2     3    1
     3     3     4    1
     4     4     5    1
     5     5     6    1
     6     6     7   ar
     7     7     8   ar
     8     8     9   ar
     9     9    10   ar
    10    10    11    1
    11    10    12   ar
    12    12    13   ar
    13    13    14   ar
    14    14    15   ar
    15     9    15   ar
    16     6    15   ar
    17     5    16    1
    18    16    17    1
    19    16    18    1
    20     3    18    1
    21    18    19    1
    22     1    20    1
    23     2    21    1
    24     2    22    1
    25     3    23    1
    26     5    24    1
    27     7    25    1
    28    11    26    1
    29    13    27    1
    30    16    28    1
    31    17    29    1
    32    18    30    1
    33    19    31    1
