@<TRIPOS>MOLECULE
*****
 22 23 0 0 0
SMALL
GASTEIGER

@<TRIPOS>ATOM
      1 C           1.2846    0.2239    0.0718 C.3     1  UNL1        0.0227
      2 N           2.7153    0.0891   -0.0170 N.ar    1  UNL1       -0.2287
      3 C           3.3852   -1.0579   -0.2719 C.ar    1  UNL1        0.4436
      4 O           2.9112   -2.1724   -0.4246 O.2     1  UNL1       -0.2206
      5 O           4.7311   -0.7881   -0.3427 O.2     1  UNL1       -0.3110
      6 N           4.8725    0.6024   -0.0922 N.ar    1  UNL1       -0.1175
      7 C           6.1499    1.1729   -0.0498 C.ar    1  UNL1        0.0880
      8 C           6.3379    2.4987    0.3567 C.ar    1  UNL1       -0.0333
      9 C           7.6208    3.0545    0.4109 C.ar    1  UNL1       -0.0399
     10 C           8.7325    2.2970    0.0414 C.ar    1  UNL1        0.0594
     11 CL         10.2854    3.0465    0.1339 Cl      1  UNL1       -0.0820
     12 C           8.5564    0.9774   -0.3829 C.ar    1  UNL1        0.0613
     13 CL          9.8790   -0.0155   -0.8854 Cl      1  UNL1       -0.0820
     14 C           7.2724    0.4177   -0.4183 C.ar    1  UNL1       -0.0150
     15 C           3.6003    1.1206    0.1101 C.ar    1  UNL1        0.3677
     16 O           3.2939    2.2812    0.3456 O.2     1  UNL1       -0.2430
     17 H           0.7994   -0.7547    0.1015 H       1  UNL1        0.0459
     18 H           0.9382    0.7760   -0.8076 H       1  UNL1        0.0459
     19 H           1.0278    0.8010    0.9637 H       1  UNL1        0.0459
     20 H           5.4987    3.1239    0.6545 H       1  UNL1        0.0640
     21 H           7.7409    4.0831    0.7451 H       1  UNL1        0.0633
     22 H           7.1574   -0.6114   -0.7523 H       1  UNL1        0.0654
@<TRIPOS>BOND
     1     1     2    1
     2     2     3   ar
     3     3     4    2
     4     3     5   ar
     5     5     6   ar
     6     6     7    1
     7     7     8   ar
     8     8     9   ar
     9     9    10   ar
    10    10    11    1
    11    10    12   ar
    12    12    13    1
    13    12    14   ar
    14     7    14   ar
    15     6    15   ar
    16     2    15   ar
    17    15    16    2
    18     1    17    1
    19     1    18    1
    20     1    19    1
    21     8    20    1
    22     9    21    1
    23    14    22    1
