@<TRIPOS>MOLECULE
*****
   24    25     1     0     0
SMALL
bcc


@<TRIPOS>ATOM
      1 C            1.4330    -0.2170     0.0410 ca         1 UNL      -0.159000
      2 C1           0.6520    -1.1090    -0.6880 ca         1 UNL      -0.102500
      3 C2          -0.7310    -0.9240    -0.7600 ca         1 UNL      -0.173750
      4 C3          -1.3490     0.1470    -0.1040 ca         1 UNL       0.145600
      5 N           -2.7460     0.3460    -0.1370 nu         1 UNL      -0.627000
      6 C4          -3.7530    -0.6340    -0.2530 ca         1 UNL       0.145600
      7 C5          -3.6070    -1.9040     0.3230 ca         1 UNL      -0.173750
      8 C6          -4.6010    -2.8760     0.1910 ca         1 UNL      -0.102500
      9 C7          -5.7660    -2.5840    -0.5110 ca         1 UNL      -0.159000
     10 C8          -5.9410    -1.3180    -1.0670 ca         1 UNL      -0.102500
     11 C9          -4.9420    -0.3470    -0.9330 ca         1 UNL      -0.173750
     12 C10         -0.5480     1.0530     0.6010 ca         1 UNL      -0.173750
     13 C11          0.8350     0.8670     0.6820 ca         1 UNL      -0.102500
     14 H            2.5080    -0.3660     0.1090 ha         1 UNL       0.132500
     15 H1           1.1120    -1.9500    -1.1980 ha         1 UNL       0.131250
     16 H2          -1.3220    -1.6220    -1.3480 ha         1 UNL       0.138000
     17 H3          -2.9870     1.2410    -0.5510 hn         1 UNL       0.416800
     18 H4          -2.7150    -2.1420     0.8960 ha         1 UNL       0.138000
     19 H5          -4.4600    -3.8550     0.6400 ha         1 UNL       0.131250
     20 H6          -6.5390    -3.3400    -0.6180 ha         1 UNL       0.132500
     21 H7          -6.8560    -1.0860    -1.6060 ha         1 UNL       0.131250
     22 H8          -5.1020     0.6310    -1.3780 ha         1 UNL       0.138000
     23 H9          -1.0040     1.8900     1.1220 ha         1 UNL       0.138000
     24 H10          1.4430     1.5620     1.2540 ha         1 UNL       0.131250
@<TRIPOS>BOND
     1     1     2 ar  
     2     2     3 ar  
     3     3     4 ar  
     4     4     5 1   
     5     5     6 1   
     6     6     7 ar  
     7     7     8 ar  
     8     8     9 ar  
     9     9    10 ar  
    10    10    11 ar  
    11     6    11 ar  
    12     4    12 ar  
    13    12    13 ar  
    14     1    13 ar  
    15     1    14 1   
    16     2    15 1   
    17     3    16 1   
    18     5    17 1   
    19     7    18 1   
    20     8    19 1   
    21     9    20 1   
    22    10    21 1   
    23    11    22 1   
    24    12    23 1   
    25    13    24 1   
@<TRIPOS>SUBSTRUCTURE
     1 UNL         1 TEMP              0 ****  ****    0 ROOT
