@<TRIPOS>MOLECULE
*****
 30 31 0 0 0
SMALL
GASTEIGER

@<TRIPOS>ATOM
      1 C           0.8436    0.0491   -0.2311 C.3     1  UNL1       -0.0636
      2 C           2.3533   -0.0116   -0.0235 C.3     1  UNL1       -0.0293
      3 C           2.9486    1.0316    0.9883 C.3     1  UNL1        0.1471
      4 C           2.3850    0.9118    2.4250 C.ar    1  UNL1       -0.0237
      5 C           1.9704   -0.3294    2.9471 C.ar    1  UNL1       -0.0571
      6 C           1.4918   -0.4540    4.2554 C.ar    1  UNL1       -0.0615
      7 C           1.4353    0.6593    5.0853 C.ar    1  UNL1       -0.0617
      8 C           1.8624    1.8925    4.6077 C.ar    1  UNL1       -0.0615
      9 C           2.3416    2.0177    3.2955 C.ar    1  UNL1       -0.0571
     10 C           2.7064    2.4060    0.3356 C.2     1  UNL1        0.2336
     11 O           1.7436    3.1386    0.5684 O.2     1  UNL1       -0.2743
     12 N           3.5439    2.7640   -0.6868 N.am    1  UNL1       -0.2986
     13 C           4.9252    2.4361   -0.6469 C.3     1  UNL1        0.0780
     14 N           5.1845    1.1606   -0.0780 N.am    1  UNL1       -0.2986
     15 C           4.4588    0.7156    0.9964 C.2     1  UNL1        0.2336
     16 O           5.0184   -0.0271    1.8022 O.2     1  UNL1       -0.2743
     17 H           0.5562   -0.6610   -1.0139 H       1  UNL1        0.0230
     18 H           0.5161    1.0409   -0.5552 H       1  UNL1        0.0230
     19 H           0.2939   -0.2200    0.6738 H       1  UNL1        0.0230
     20 H           2.8176    0.1235   -1.0104 H       1  UNL1        0.0280
     21 H           2.6292   -1.0322    0.2721 H       1  UNL1        0.0280
     22 H           2.0234   -1.2356    2.3495 H       1  UNL1        0.0621
     23 H           1.1738   -1.4256    4.6242 H       1  UNL1        0.0618
     24 H           1.0682    0.5611    6.1034 H       1  UNL1        0.0618
     25 H           1.8271    2.7649    5.2564 H       1  UNL1        0.0618
     26 H           2.6672    3.0025    2.9728 H       1  UNL1        0.0621
     27 H           3.2967    3.6615   -1.0837 H       1  UNL1        0.1502
     28 H           5.4419    3.1925   -0.0484 H       1  UNL1        0.0670
     29 H           5.3197    2.4525   -1.6670 H       1  UNL1        0.0670
     30 H           6.1538    0.8720   -0.0239 H       1  UNL1        0.1502
@<TRIPOS>BOND
     1     1     2    1
     2     2     3    1
     3     3     4    1
     4     4     5   ar
     5     5     6   ar
     6     6     7   ar
     7     7     8   ar
     8     8     9   ar
     9     4     9   ar
    10     3    10    1
    11    10    11    2
    12    10    12   am
    13    12    13    1
    14    13    14    1
    15    14    15   am
    16     3    15    1
    17    15    16    2
    18     1    17    1
    19     1    18    1
    20     1    19    1
    21     2    20    1
    22     2    21    1
    23     5    22    1
    24     6    23    1
    25     7    24    1
    26     8    25    1
    27     9    26    1
    28    12    27    1
    29    13    28    1
    30    13    29    1
    31    14    30    1
