@<TRIPOS>MOLECULE
*****
   38    39     1     0     0
SMALL
bcc


@<TRIPOS>ATOM
      1 O            3.4050    -0.0300    -4.7730 oh         1 UNL      -0.600800
      2 C            4.1890    -1.0900    -4.2600 c3         1 UNL       0.185700
      3 C1           3.4330    -2.3890    -4.1220 ca         1 UNL      -0.163300
      4 C2           3.3290    -3.1960    -5.2790 ca         1 UNL      -0.095000
      5 C3           2.9620    -4.5290    -5.1880 ca         1 UNL      -0.158000
      6 C4           2.7110    -5.0600    -3.9220 ca         1 UNL      -0.090000
      7 C5           2.6970    -4.2310    -2.7870 ca         1 UNL      -0.181000
      8 C6           2.9790    -2.8630    -2.8740 ca         1 UNL       0.158100
      9 O1           2.9260    -1.9700    -1.8190 os         1 UNL      -0.381900
     10 C7           2.0360    -2.2480    -0.7010 c3         1 UNL       0.305900
     11 O2           0.8030    -1.5140    -0.7470 os         1 UNL      -0.418600
     12 C8           0.8620    -0.1380    -0.3440 c3         1 UNL       0.102100
     13 C9          -0.5660     0.4430    -0.4690 c3         1 UNL       0.148400
     14 O3          -1.5540    -0.2460     0.3030 oh         1 UNL      -0.601800
     15 C10          1.4200     0.0280     1.0770 c3         1 UNL       0.086100
     16 O4           0.5330    -0.5320     2.0580 oh         1 UNL      -0.608800
     17 C11          2.7800    -0.6540     1.2200 c3         1 UNL       0.072100
     18 O5           3.0840    -0.7110     2.6360 oh         1 UNL      -0.590800
     19 C12          2.7750    -2.0850     0.6550 c3         1 UNL       0.138100
     20 O6           4.1240    -2.5780     0.5650 oh         1 UNL      -0.570800
     21 H            2.5530    -0.4040    -5.0520 ho         1 UNL       0.403000
     22 H1           4.6350    -0.7850    -3.3100 h1         1 UNL       0.052700
     23 H2           5.0340    -1.2520    -4.9440 h1         1 UNL       0.052700
     24 H3           3.5890    -2.7900    -6.2530 ha         1 UNL       0.134000
     25 H4           2.9360    -5.1660    -6.0660 ha         1 UNL       0.137000
     26 H5           2.5380    -6.1300    -3.8260 ha         1 UNL       0.137000
     27 H6           2.5100    -4.7250    -1.8390 ha         1 UNL       0.144000
     28 H7           1.7220    -3.2910    -0.7300 h2         1 UNL       0.097700
     29 H8           1.5050     0.3980    -1.0530 h1         1 UNL       0.085700
     30 H9          -0.9030     0.3880    -1.5040 h1         1 UNL       0.060700
     31 H10         -0.5870     1.4980    -0.1570 h1         1 UNL       0.060700
     32 H11         -1.1380    -1.0710     0.6170 ho         1 UNL       0.416000
     33 H12          1.5180     1.0940     1.3210 h1         1 UNL       0.057700
     34 H13          1.0670    -0.6500     2.8710 ho         1 UNL       0.424000
     35 H14          3.5710    -0.0620     0.7470 h1         1 UNL       0.071700
     36 H15          3.2660     0.1910     2.9510 ho         1 UNL       0.409000
     37 H16          2.2670    -2.7200     1.3910 h1         1 UNL       0.111700
     38 H17          4.5020    -2.2240    -0.2620 ho         1 UNL       0.413000
@<TRIPOS>BOND
     1     1     2 1   
     2     2     3 1   
     3     3     4 ar  
     4     4     5 ar  
     5     5     6 ar  
     6     6     7 ar  
     7     7     8 ar  
     8     3     8 ar  
     9     8     9 1   
    10     9    10 1   
    11    10    11 1   
    12    11    12 1   
    13    12    13 1   
    14    13    14 1   
    15    12    15 1   
    16    15    16 1   
    17    15    17 1   
    18    17    18 1   
    19    17    19 1   
    20    10    19 1   
    21    19    20 1   
    22     1    21 1   
    23     2    22 1   
    24     2    23 1   
    25     4    24 1   
    26     5    25 1   
    27     6    26 1   
    28     7    27 1   
    29    10    28 1   
    30    12    29 1   
    31    13    30 1   
    32    13    31 1   
    33    14    32 1   
    34    15    33 1   
    35    16    34 1   
    36    17    35 1   
    37    18    36 1   
    38    19    37 1   
    39    20    38 1   
@<TRIPOS>SUBSTRUCTURE
     1 UNL         1 TEMP              0 ****  ****    0 ROOT
