@<TRIPOS>MOLECULE
*****
 38 40 0 0 0
SMALL
GASTEIGER

@<TRIPOS>ATOM
      1 C           0.9649    0.0427   -0.0517 C.3     1  UNL1        0.0114
      2 N           2.4277    0.0635   -0.0820 N.ar    1  UNL1       -0.3549
      3 C           3.1738   -1.1104   -0.0831 C.ar    1  UNL1        0.0156
      4 C           4.5175   -1.1676   -0.0954 C.ar    1  UNL1        0.0455
      5 C           5.2327   -2.4493   -0.0669 C.ar    1  UNL1       -0.0128
      6 C           5.5587   -3.1148   -1.2554 C.ar    1  UNL1       -0.0539
      7 C           6.2290   -4.3401   -1.2148 C.ar    1  UNL1       -0.0612
      8 C           6.5857   -4.9014    0.0109 C.ar    1  UNL1       -0.0617
      9 C           6.2859   -4.2331    1.1968 C.ar    1  UNL1       -0.0612
     10 C           5.6098   -3.0121    1.1591 C.ar    1  UNL1       -0.0539
     11 C           5.2620    0.1297   -0.1088 C.ar    1  UNL1        0.1970
     12 O           6.4935    0.1645   -0.1216 O.2     1  UNL1       -0.2865
     13 C           4.4563    1.3893   -0.0998 C.ar    1  UNL1        0.0455
     14 C           5.0925    2.7090   -0.0688 C.ar    1  UNL1       -0.0123
     15 C           5.4474    3.2795    1.1594 C.ar    1  UNL1       -0.0538
     16 C           5.9622    4.5732    1.2123 C.ar    1  UNL1       -0.0607
     17 C           6.1085    5.3110    0.0391 C.ar    1  UNL1       -0.0501
     18 C           5.7607    4.7573   -1.2026 C.ar    1  UNL1        0.0554
     19 C           5.8412    5.5879   -2.4584 C.3     1  UNL1        0.4174
     20 F           6.2400    6.8714   -2.2291 F       1  UNL1       -0.1659
     21 F           6.7060    5.0860   -3.3803 F       1  UNL1       -0.1659
     22 F           4.6362    5.6869   -3.0881 F       1  UNL1       -0.1659
     23 C           5.2766    3.4392   -1.2501 C.ar    1  UNL1       -0.0422
     24 C           3.1164    1.2724   -0.0889 C.ar    1  UNL1        0.0156
     25 H           0.5662   -0.9790   -0.0517 H       1  UNL1        0.0455
     26 H           0.5645    0.5608   -0.9292 H       1  UNL1        0.0455
     27 H           0.5990    0.5483    0.8495 H       1  UNL1        0.0455
     28 H           2.5772   -2.0192   -0.0584 H       1  UNL1        0.0816
     29 H           5.3108   -2.6761   -2.2191 H       1  UNL1        0.0624
     30 H           6.4822   -4.8516   -2.1399 H       1  UNL1        0.0618
     31 H           7.1088   -5.8538    0.0418 H       1  UNL1        0.0618
     32 H           6.5859   -4.6567    2.1514 H       1  UNL1        0.0618
     33 H           5.3950   -2.4941    2.0908 H       1  UNL1        0.0624
     34 H           5.3048    2.7260    2.0852 H       1  UNL1        0.0624
     35 H           6.2183    5.0180    2.1708 H       1  UNL1        0.0618
     36 H           6.4728    6.3356    0.0988 H       1  UNL1        0.0623
     37 H           5.0123    2.9938   -2.2090 H       1  UNL1        0.0629
     38 H           2.4739    2.1504   -0.0685 H       1  UNL1        0.0816
@<TRIPOS>BOND
     1     1     2    1
     2     2     3   ar
     3     3     4   ar
     4     4     5    1
     5     5     6   ar
     6     6     7   ar
     7     7     8   ar
     8     8     9   ar
     9     9    10   ar
    10     5    10   ar
    11     4    11   ar
    12    11    12    2
    13    11    13   ar
    14    13    14    1
    15    14    15   ar
    16    15    16   ar
    17    16    17   ar
    18    17    18   ar
    19    18    19    1
    20    19    20    1
    21    19    21    1
    22    19    22    1
    23    18    23   ar
    24    14    23   ar
    25    13    24   ar
    26     2    24   ar
    27     1    25    1
    28     1    26    1
    29     1    27    1
    30     3    28    1
    31     6    29    1
    32     7    30    1
    33     8    31    1
    34     9    32    1
    35    10    33    1
    36    15    34    1
    37    16    35    1
    38    17    36    1
    39    23    37    1
    40    24    38    1
