@<TRIPOS>MOLECULE
*****
 26 27 0 0 0
SMALL
GASTEIGER

@<TRIPOS>ATOM
      1 CL          0.9796   -0.1604    0.0365 Cl      1  UNL1       -0.0698
      2 C           2.7154   -0.0297    0.0375 C.2     1  UNL1        0.1148
      3 CL          3.5025   -0.9468    1.2911 Cl      1  UNL1       -0.0698
      4 C           3.3955    0.7235   -0.8577 C.2     1  UNL1        0.0189
      5 C           2.6624    1.5437   -1.8537 C.ar    1  UNL1       -0.0150
      6 C           2.2705    2.8506   -1.5268 C.ar    1  UNL1       -0.0526
      7 C           1.6114    3.6450   -2.4678 C.ar    1  UNL1       -0.0428
      8 C           1.3439    3.1343   -3.7360 C.ar    1  UNL1        0.0410
      9 CL          0.5423    4.1164   -4.9000 Cl      1  UNL1       -0.0835
     10 C           1.7268    1.8371   -4.0685 C.ar    1  UNL1       -0.0428
     11 C           2.3836    1.0396   -3.1314 C.ar    1  UNL1       -0.0526
     12 C           4.8788    0.7410   -0.8383 C.ar    1  UNL1       -0.0150
     13 C           5.6024   -0.2126   -1.5691 C.ar    1  UNL1       -0.0526
     14 C           7.0004   -0.1948   -1.5596 C.ar    1  UNL1       -0.0428
     15 C           7.6747    0.7750   -0.8236 C.ar    1  UNL1        0.0410
     16 CL          9.3953    0.7965   -0.8114 Cl      1  UNL1       -0.0835
     17 C           6.9671    1.7325   -0.0985 C.ar    1  UNL1       -0.0428
     18 C           5.5683    1.7144   -0.1043 C.ar    1  UNL1       -0.0526
     19 H           2.4798    3.2612   -0.5411 H       1  UNL1        0.0624
     20 H           1.3153    4.6577   -2.2074 H       1  UNL1        0.0632
     21 H           1.5156    1.4394   -5.0607 H       1  UNL1        0.0632
     22 H           2.6789    0.0287   -3.4026 H       1  UNL1        0.0624
     23 H           5.0857   -0.9743   -2.1487 H       1  UNL1        0.0624
     24 H           7.5527   -0.9397   -2.1267 H       1  UNL1        0.0632
     25 H           7.4937    2.4905    0.4735 H       1  UNL1        0.0632
     26 H           5.0266    2.4644    0.4674 H       1  UNL1        0.0624
@<TRIPOS>BOND
     1     1     2    1
     2     2     3    1
     3     2     4    2
     4     4     5    1
     5     5     6   ar
     6     6     7   ar
     7     7     8   ar
     8     8     9    1
     9     8    10   ar
    10    10    11   ar
    11     5    11   ar
    12     4    12    1
    13    12    13   ar
    14    13    14   ar
    15    14    15   ar
    16    15    16    1
    17    15    17   ar
    18    17    18   ar
    19    12    18   ar
    20     6    19    1
    21     7    20    1
    22    10    21    1
    23    11    22    1
    24    13    23    1
    25    14    24    1
    26    17    25    1
    27    18    26    1
