@<TRIPOS>MOLECULE
*****
   46    49     1     0     0
SMALL
bcc


@<TRIPOS>ATOM
      1 C            1.3500    -1.3820    -1.5670 c3         1 UNL      -0.087100
      2 C1           2.6370    -0.7990    -0.9650 c3         1 UNL      -0.152000
      3 C2           3.0900    -1.5930     0.2430 c3         1 UNL      -0.161400
      4 C3           1.9900    -1.5260     1.3200 c          1 UNL       0.574100
      5 O            1.6850    -2.5370     1.9540 o          1 UNL      -0.530100
      6 C4           1.4020    -0.1400     1.6830 c3         1 UNL      -0.146700
      7 C5           1.5030     0.8770     0.5020 c3         1 UNL      -0.043700
      8 C6           1.5630     2.2480     1.1580 c3         1 UNL      -0.072400
      9 C7           0.1390     2.5690     1.5690 c3         1 UNL      -0.055200
     10 C8          -0.5960     1.4320     2.2710 c2         1 UNL      -0.040400
     11 C9          -1.6360     1.8230     3.0320 ce         1 UNL      -0.256200
     12 C10         -2.3370     0.8990     3.9420 c          1 UNL       0.567300
     13 O1          -3.3660     1.2800     4.5100 o          1 UNL      -0.533100
     14 C11         -1.7660    -0.4860     4.1280 c3         1 UNL      -0.179400
     15 C12         -0.2860    -0.5680     3.6870 c3         1 UNL      -0.079400
     16 C13         -0.0990    -0.0610     2.2240 c3         1 UNL       0.000200
     17 C14         -1.0230    -0.9660     1.3560 c3         1 UNL      -0.093100
     18 C15          2.5940     0.6740    -0.5320 c3         1 UNL      -0.070700
     19 C16          2.4090     1.4540    -1.8480 c3         1 UNL      -0.071400
     20 C17          3.2220     0.6710    -2.8880 c3         1 UNL      -0.187400
     21 C18          3.5600    -0.5980    -2.1520 c          1 UNL       0.579100
     22 O2           4.4170    -1.4090    -2.5040 o          1 UNL      -0.510100
     23 H            0.6050    -1.5840    -0.8090 hc         1 UNL       0.049033
     24 H1           1.5500    -2.3400    -2.0570 hc         1 UNL       0.049033
     25 H2           0.8810    -0.7280    -2.3090 hc         1 UNL       0.049033
     26 H3           4.0210    -1.2000     0.6700 hc         1 UNL       0.081700
     27 H4           3.2780    -2.6370    -0.0300 hc         1 UNL       0.081700
     28 H5           2.0640     0.1850     2.5010 hc         1 UNL       0.075700
     29 H6           0.5740     0.8150    -0.0790 hc         1 UNL       0.065700
     30 H7           1.9520     3.0250     0.4920 hc         1 UNL       0.049700
     31 H8           2.2260     2.2480     2.0360 hc         1 UNL       0.049700
     32 H9          -0.4190     2.8500     0.6680 hc         1 UNL       0.058700
     33 H10          0.1730     3.4550     2.2160 hc         1 UNL       0.058700
     34 H11         -1.9850     2.8540     3.0530 ha         1 UNL       0.147000
     35 H12         -2.4000    -1.1730     3.5580 hc         1 UNL       0.074200
     36 H13         -1.8550    -0.7540     5.1830 hc         1 UNL       0.074200
     37 H14          0.0510    -1.6040     3.7970 hc         1 UNL       0.062700
     38 H15          0.3230     0.0390     4.3690 hc         1 UNL       0.062700
     39 H16         -2.0800    -0.6920     1.4280 hc         1 UNL       0.046700
     40 H17         -0.9410    -2.0170     1.6720 hc         1 UNL       0.046700
     41 H18         -0.7960    -0.9320     0.2960 hc         1 UNL       0.046700
     42 H19          3.5660     0.9770    -0.1070 hc         1 UNL       0.054700
     43 H20          2.7510     2.4910    -1.7740 hc         1 UNL       0.053200
     44 H21          1.3530     1.4940    -2.1470 hc         1 UNL       0.053200
     45 H22          4.1280     1.2050    -3.1930 hc         1 UNL       0.079200
     46 H23          2.6080     0.4390    -3.7640 hc         1 UNL       0.079200
@<TRIPOS>BOND
     1     1     2 1   
     2     2     3 1   
     3     3     4 1   
     4     4     5 2   
     5     4     6 1   
     6     6     7 1   
     7     7     8 1   
     8     8     9 1   
     9     9    10 1   
    10    10    11 2   
    11    11    12 1   
    12    12    13 2   
    13    12    14 1   
    14    14    15 1   
    15    15    16 1   
    16    10    16 1   
    17     6    16 1   
    18    16    17 1   
    19     7    18 1   
    20     2    18 1   
    21    18    19 1   
    22    19    20 1   
    23    20    21 1   
    24     2    21 1   
    25    21    22 2   
    26     1    23 1   
    27     1    24 1   
    28     1    25 1   
    29     3    26 1   
    30     3    27 1   
    31     6    28 1   
    32     7    29 1   
    33     8    30 1   
    34     8    31 1   
    35     9    32 1   
    36     9    33 1   
    37    11    34 1   
    38    14    35 1   
    39    14    36 1   
    40    15    37 1   
    41    15    38 1   
    42    17    39 1   
    43    17    40 1   
    44    17    41 1   
    45    18    42 1   
    46    19    43 1   
    47    19    44 1   
    48    20    45 1   
    49    20    46 1   
@<TRIPOS>SUBSTRUCTURE
     1 UNL         1 TEMP              0 ****  ****    0 ROOT
