@<TRIPOS>MOLECULE
*****
   20    22     1     0     0
SMALL
bcc


@<TRIPOS>ATOM
      1 C            0.7290     2.3210     0.0060 cc         1 UNL      -0.119000
      2 C1          -0.6270     2.3480     0.0030 cd         1 UNL      -0.119000
      3 C2          -1.1160     0.9200     0.0010 ca         1 UNL      -0.060000
      4 C3          -2.3860     0.3600    -0.0000 ca         1 UNL      -0.071000
      5 C4          -2.4530    -1.0490     0.0010 ca         1 UNL      -0.144000
      6 C5          -1.2960    -1.8570    -0.0010 ca         1 UNL      -0.091000
      7 C6          -0.0210    -1.2650    -0.0020 ca         1 UNL      -0.036000
      8 C7           1.2310    -1.9070    -0.0040 ca         1 UNL      -0.091000
      9 C8           2.4180    -1.1440    -0.0010 ca         1 UNL      -0.144000
     10 C9           2.4070     0.2650     0.0040 ca         1 UNL      -0.071000
     11 C10          1.1590     0.8750     0.0040 ca         1 UNL      -0.060000
     12 C11          0.0060     0.1010     0.0010 ca         1 UNL      -0.083000
     13 H            1.3990     3.1660     0.0090 ha         1 UNL       0.146000
     14 H1          -1.2620     3.2210     0.0020 ha         1 UNL       0.146000
     15 H2          -3.2770     0.9770    -0.0000 ha         1 UNL       0.135000
     16 H3          -3.4300    -1.5290     0.0030 ha         1 UNL       0.131000
     17 H4          -1.3970    -2.9390     0.0010 ha         1 UNL       0.133000
     18 H5           1.2900    -2.9920    -0.0090 ha         1 UNL       0.133000
     19 H6           3.3770    -1.6610    -0.0030 ha         1 UNL       0.131000
     20 H7           3.3200     0.8480     0.0080 ha         1 UNL       0.135000
@<TRIPOS>BOND
     1     1     2 2   
     2     2     3 1   
     3     3     4 ar  
     4     4     5 ar  
     5     5     6 ar  
     6     6     7 ar  
     7     7     8 ar  
     8     8     9 ar  
     9     9    10 ar  
    10    10    11 ar  
    11     1    11 1   
    12    11    12 ar  
    13     3    12 ar  
    14     7    12 ar  
    15     1    13 1   
    16     2    14 1   
    17     4    15 1   
    18     5    16 1   
    19     6    17 1   
    20     8    18 1   
    21     9    19 1   
    22    10    20 1   
@<TRIPOS>SUBSTRUCTURE
     1 UNL         1 TEMP              0 ****  ****    0 ROOT
