@<TRIPOS>MOLECULE
*****
 45 46 0 0 0
SMALL
GASTEIGER

@<TRIPOS>ATOM
      1 C           2.5121    1.0866   -0.0929 C.3     1  UNL1       -0.0397
      2 C           1.2316    0.3045   -0.0688 C.ar    1  UNL1       -0.0501
      3 C           1.1659   -0.9531    0.5365 C.ar    1  UNL1       -0.0568
      4 C          -0.0365   -1.6702    0.5596 C.ar    1  UNL1       -0.0358
      5 C          -1.2027   -1.1604   -0.0318 C.ar    1  UNL1        0.0682
      6 N          -2.4449   -1.8221    0.0138 N.2     1  UNL1       -0.2398
      7 C          -2.5396   -3.1064   -0.0269 C.2     1  UNL1        0.0891
      8 N          -3.7103   -3.8540   -0.0354 N.pl3   1  UNL1       -0.2852
      9 C          -4.9875   -3.1366   -0.0308 C.3     1  UNL1        0.0074
     10 C          -3.7945   -5.2352   -0.0509 C.2     1  UNL1        0.0891
     11 N          -4.8728   -5.9506   -0.0918 N.2     1  UNL1       -0.2398
     12 C          -4.7616   -7.3568   -0.0729 C.ar    1  UNL1        0.0682
     13 C          -3.7231   -8.0336   -0.7288 C.ar    1  UNL1       -0.0358
     14 C          -3.6224   -9.4239   -0.6825 C.ar    1  UNL1       -0.0568
     15 C          -4.5765  -10.1776    0.0018 C.ar    1  UNL1       -0.0501
     16 C          -4.4703  -11.6692    0.0695 C.3     1  UNL1       -0.0397
     17 C          -5.6383   -9.5148    0.6324 C.ar    1  UNL1       -0.0539
     18 C          -5.7400   -8.1119    0.5984 C.ar    1  UNL1       -0.0248
     19 C          -6.8918   -7.4366    1.2938 C.3     1  UNL1       -0.0377
     20 C          -1.1405    0.1155   -0.6293 C.ar    1  UNL1       -0.0248
     21 C          -2.3442    0.7613   -1.2637 C.3     1  UNL1       -0.0377
     22 C           0.0735    0.8316   -0.6471 C.ar    1  UNL1       -0.0539
     23 H           3.3263    0.5360    0.3898 H       1  UNL1        0.0278
     24 H           2.3891    2.0358    0.4393 H       1  UNL1        0.0278
     25 H           2.8122    1.2886   -1.1258 H       1  UNL1        0.0278
     26 H           2.0473   -1.3812    1.0046 H       1  UNL1        0.0621
     27 H          -0.0462   -2.6306    1.0646 H       1  UNL1        0.0639
     28 H          -1.6478   -3.7594   -0.0775 H       1  UNL1        0.1003
     29 H          -4.8739   -2.0486   -0.0181 H       1  UNL1        0.0432
     30 H          -5.5710   -3.4128    0.8550 H       1  UNL1        0.0432
     31 H          -5.5683   -3.3914   -0.9244 H       1  UNL1        0.0432
     32 H          -2.7906   -5.6932   -0.0176 H       1  UNL1        0.1003
     33 H          -2.9702   -7.4844   -1.2846 H       1  UNL1        0.0639
     34 H          -2.7898   -9.9095   -1.1857 H       1  UNL1        0.0621
     35 H          -3.5876  -12.0326   -0.4671 H       1  UNL1        0.0278
     36 H          -5.3526  -12.1338   -0.3820 H       1  UNL1        0.0278
     37 H          -4.3837  -11.9916    1.1121 H       1  UNL1        0.0278
     38 H          -6.3874  -10.0986    1.1634 H       1  UNL1        0.0623
     39 H          -7.5554   -8.1646    1.7723 H       1  UNL1        0.0278
     40 H          -7.4923   -6.8652    0.5786 H       1  UNL1        0.0278
     41 H          -6.5205   -6.7662    2.0749 H       1  UNL1        0.0278
     42 H          -3.2523    0.1588   -1.1766 H       1  UNL1        0.0278
     43 H          -2.1570    0.9238   -2.3304 H       1  UNL1        0.0278
     44 H          -2.5460    1.7264   -0.7866 H       1  UNL1        0.0278
     45 H           0.1055    1.8154   -1.1128 H       1  UNL1        0.0623
@<TRIPOS>BOND
     1     1     2    1
     2     2     3   ar
     3     3     4   ar
     4     4     5   ar
     5     5     6    1
     6     6     7    2
     7     7     8    1
     8     8     9    1
     9     8    10    1
    10    10    11    2
    11    11    12    1
    12    12    13   ar
    13    13    14   ar
    14    14    15   ar
    15    15    16    1
    16    15    17   ar
    17    17    18   ar
    18    12    18   ar
    19    18    19    1
    20     5    20   ar
    21    20    21    1
    22    20    22   ar
    23     2    22   ar
    24     1    23    1
    25     1    24    1
    26     1    25    1
    27     3    26    1
    28     4    27    1
    29     7    28    1
    30     9    29    1
    31     9    30    1
    32     9    31    1
    33    10    32    1
    34    13    33    1
    35    14    34    1
    36    16    35    1
    37    16    36    1
    38    16    37    1
    39    17    38    1
    40    19    39    1
    41    19    40    1
    42    19    41    1
    43    21    42    1
    44    21    43    1
    45    21    44    1
    46    22    45    1
