@<TRIPOS>MOLECULE
*****
   34    35     1     0     0
SMALL
bcc


@<TRIPOS>ATOM
      1 C            1.3410    -0.7970    -0.3350 c3         1 UNL      -0.127100
      2 C1           2.4100    -0.3920    -1.3350 c3         1 UNL       0.141400
      3 O            3.2990    -1.5000    -1.5060 os         1 UNL      -0.427900
      4 C2           4.3100    -1.6060    -0.5950 c          1 UNL       0.689700
      5 O1           4.6710    -0.7170     0.1580 o          1 UNL      -0.573000
      6 C3           4.7830    -2.9680    -0.5890 cc         1 UNL      -0.286200
      7 C4           4.3080    -4.0360    -1.3350 cd         1 UNL       0.387200
      8 N            4.9730    -5.1930    -1.0480 nd         1 UNL      -0.682000
      9 C5           5.8480    -4.8570    -0.1320 cc         1 UNL       0.422400
     10 N1           5.7640    -3.5300     0.2090 na         1 UNL      -0.158900
     11 C6           6.5170    -2.8840     1.2930 c3         1 UNL       0.083300
     12 C7           6.8770    -3.8420     2.4390 c3         1 UNL      -0.104100
     13 C8           7.7400    -2.1480     0.7660 ca         1 UNL      -0.115300
     14 C9           7.9000    -0.7800     1.0590 ca         1 UNL      -0.108500
     15 C10          8.9950    -0.0610     0.5720 ca         1 UNL      -0.132500
     16 C11          9.9550    -0.7000    -0.2070 ca         1 UNL      -0.118000
     17 C12          9.8320    -2.0600    -0.4790 ca         1 UNL      -0.132500
     18 C13          8.7390    -2.7830     0.0110 ca         1 UNL      -0.108500
     19 H            0.6400     0.0190    -0.1520 hc         1 UNL       0.050033
     20 H1           1.7910    -1.1000     0.6170 hc         1 UNL       0.050033
     21 H2           0.7840    -1.6650    -0.7070 hc         1 UNL       0.050033
     22 H3           2.9400     0.5130    -1.0220 h1         1 UNL       0.064200
     23 H4           1.9500    -0.1860    -2.3070 h1         1 UNL       0.064200
     24 H5           3.5030    -4.0220    -2.0580 h4         1 UNL       0.057100
     25 H6           6.5470    -5.5450     0.3210 h5         1 UNL       0.065100
     26 H7           5.8240    -2.1570     1.7300 h1         1 UNL       0.109700
     27 H8           7.5210    -4.6660     2.1130 hc         1 UNL       0.051700
     28 H9           5.9660    -4.2820     2.8660 hc         1 UNL       0.051700
     29 H10          7.4050    -3.3190     3.2420 hc         1 UNL       0.051700
     30 H11          7.1580    -0.2540     1.6570 ha         1 UNL       0.141000
     31 H12          9.0890     0.9990     0.7930 ha         1 UNL       0.135000
     32 H13         10.7960    -0.1370    -0.6030 ha         1 UNL       0.134000
     33 H14         10.5860    -2.5600    -1.0830 ha         1 UNL       0.135000
     34 H15          8.6740    -3.8430    -0.2210 ha         1 UNL       0.141000
@<TRIPOS>BOND
     1     1     2 1   
     2     2     3 1   
     3     3     4 1   
     4     4     5 2   
     5     4     6 1   
     6     6     7 2   
     7     7     8 1   
     8     8     9 2   
     9     9    10 1   
    10     6    10 1   
    11    10    11 1   
    12    11    12 1   
    13    11    13 1   
    14    13    14 ar  
    15    14    15 ar  
    16    15    16 ar  
    17    16    17 ar  
    18    17    18 ar  
    19    13    18 ar  
    20     1    19 1   
    21     1    20 1   
    22     1    21 1   
    23     2    22 1   
    24     2    23 1   
    25     7    24 1   
    26     9    25 1   
    27    11    26 1   
    28    12    27 1   
    29    12    28 1   
    30    12    29 1   
    31    14    30 1   
    32    15    31 1   
    33    16    32 1   
    34    17    33 1   
    35    18    34 1   
@<TRIPOS>SUBSTRUCTURE
     1 UNL         1 TEMP              0 ****  ****    0 ROOT
