@<TRIPOS>MOLECULE
*****
 35 37 0 0 0
SMALL
GASTEIGER

@<TRIPOS>ATOM
      1 C           2.4243   -0.6023   -1.3239 C.3     1  UNL1       -0.0490
      2 C           2.4787   -0.0665    0.1032 C.3     1  UNL1        0.0145
      3 N           3.0508   -1.0546    1.0402 N.pl3   1  UNL1       -0.2983
      4 C           4.4387   -0.9737    1.2116 C.ar    1  UNL1        0.0462
      5 C           4.9945    0.1143    1.9077 C.ar    1  UNL1       -0.0396
      6 C           6.3686    0.1950    2.1518 C.ar    1  UNL1       -0.0600
      7 C           7.2182   -0.7977    1.6736 C.ar    1  UNL1       -0.0609
      8 C           6.6852   -1.8741    0.9728 C.ar    1  UNL1       -0.0478
      9 C           5.3015   -1.9640    0.7639 C.ar    1  UNL1        0.0585
     10 C           4.8115   -3.1642    0.0833 C.2     1  UNL1        0.2524
     11 O           5.4162   -3.5372   -0.9234 O.2     1  UNL1       -0.2696
     12 N           3.9169   -3.9635    0.7862 N.am    1  UNL1       -0.2687
     13 C           4.2648   -5.3762    0.8027 C.3     1  UNL1        0.0087
     14 C           2.6993   -3.5099    1.4149 C.ar    1  UNL1        0.0576
     15 C           1.8366   -4.4851    1.9728 C.ar    1  UNL1       -0.0385
     16 C           0.5998   -4.1645    2.5358 C.ar    1  UNL1       -0.0599
     17 C           0.1801   -2.8490    2.5564 C.ar    1  UNL1       -0.0599
     18 C           1.0007   -1.8649    2.0108 C.ar    1  UNL1       -0.0385
     19 C           2.2626   -2.1575    1.4321 C.ar    1  UNL1        0.0557
     20 H           2.0596    0.1742   -2.0025 H       1  UNL1        0.0245
     21 H           1.7502   -1.4612   -1.4008 H       1  UNL1        0.0245
     22 H           3.4142   -0.9162   -1.6718 H       1  UNL1        0.0245
     23 H           1.4725    0.2427    0.4063 H       1  UNL1        0.0465
     24 H           3.0702    0.8585    0.1009 H       1  UNL1        0.0465
     25 H           4.3407    0.8858    2.3080 H       1  UNL1        0.0636
     26 H           6.7690    1.0262    2.7275 H       1  UNL1        0.0618
     27 H           8.2875   -0.7421    1.8630 H       1  UNL1        0.0618
     28 H           7.3471   -2.6529    0.5939 H       1  UNL1        0.0626
     29 H           5.2503   -5.5525    0.3577 H       1  UNL1        0.0433
     30 H           3.5265   -5.9600    0.2485 H       1  UNL1        0.0433
     31 H           4.3349   -5.7096    1.8444 H       1  UNL1        0.0433
     32 H           2.0958   -5.5393    1.9716 H       1  UNL1        0.0637
     33 H          -0.0252   -4.9470    2.9574 H       1  UNL1        0.0618
     34 H          -0.7682   -2.5808    3.0133 H       1  UNL1        0.0618
     35 H           0.6700   -0.8328    2.1010 H       1  UNL1        0.0637
@<TRIPOS>BOND
     1     1     2    1
     2     2     3    1
     3     3     4    1
     4     4     5   ar
     5     5     6   ar
     6     6     7   ar
     7     7     8   ar
     8     8     9   ar
     9     4     9   ar
    10     9    10    1
    11    10    11    2
    12    10    12   am
    13    12    13    1
    14    12    14    1
    15    14    15   ar
    16    15    16   ar
    17    16    17   ar
    18    17    18   ar
    19    18    19   ar
    20    14    19   ar
    21     3    19    1
    22     1    20    1
    23     1    21    1
    24     1    22    1
    25     2    23    1
    26     2    24    1
    27     5    25    1
    28     6    26    1
    29     7    27    1
    30     8    28    1
    31    13    29    1
    32    13    30    1
    33    13    31    1
    34    15    32    1
    35    16    33    1
    36    17    34    1
    37    18    35    1
