@<TRIPOS>MOLECULE
*****
 43 44 0 0 0
SMALL
GASTEIGER

@<TRIPOS>ATOM
      1 C           0.8669    0.2265    0.1335 C.3     1  UNL1       -0.0624
      2 C           2.3822    0.1146   -0.0488 C.3     1  UNL1       -0.0425
      3 C           2.9226    1.1212   -1.0801 C.3     1  UNL1       -0.0411
      4 C           2.5702    0.7634   -2.5300 C.3     1  UNL1        0.0153
      5 C           3.2149    1.7426   -3.5056 C.3     1  UNL1       -0.0557
      6 C           2.9801   -0.6825   -2.8086 C.2     1  UNL1        0.1417
      7 O           3.6372   -1.0137   -3.7949 O.2     1  UNL1       -0.2967
      8 C           2.4078   -1.7102   -1.8391 C.3     1  UNL1        0.0439
      9 C           2.7529   -3.1707   -2.1837 C.3     1  UNL1        0.0650
     10 O           2.3502   -3.4576   -3.5241 O.3     1  UNL1       -0.3911
     11 C           4.2155   -3.6087   -1.9803 C.3     1  UNL1       -0.0225
     12 C           4.4670   -5.0968   -2.3428 C.3     1  UNL1       -0.0222
     13 C           3.7101   -6.0848   -1.4507 C.3     1  UNL1        0.0277
     14 C           4.2702   -6.1216   -0.0497 C.2     1  UNL1        0.2195
     15 O           3.5608   -6.2482    0.9442 O.2     1  UNL1       -0.2754
     16 N           5.6322   -6.0267    0.0564 N.am    1  UNL1       -0.2564
     17 C           6.4962   -5.5586   -0.8979 C.2     1  UNL1        0.2195
     18 O           7.6585   -5.2813   -0.6151 O.2     1  UNL1       -0.2754
     19 C           5.9569   -5.4440   -2.3042 C.3     1  UNL1        0.0277
     20 C           2.8116   -1.3154   -0.4154 C.3     1  UNL1       -0.0385
     21 H           0.5988    1.2208    0.5053 H       1  UNL1        0.0232
     22 H           0.5132   -0.5079    0.8655 H       1  UNL1        0.0232
     23 H           0.3170    0.0609   -0.7969 H       1  UNL1        0.0232
     24 H           2.8356    0.3568    0.9217 H       1  UNL1        0.0299
     25 H           4.0157    1.1595   -0.9773 H       1  UNL1        0.0274
     26 H           2.5527    2.1266   -0.8440 H       1  UNL1        0.0274
     27 H           1.4842    0.8170   -2.6743 H       1  UNL1        0.0375
     28 H           4.3078    1.7179   -3.4365 H       1  UNL1        0.0236
     29 H           2.8819    2.7664   -3.3045 H       1  UNL1        0.0236
     30 H           2.9424    1.4994   -4.5384 H       1  UNL1        0.0236
     31 H           1.3191   -1.6236   -1.9559 H       1  UNL1        0.0403
     32 H           2.1178   -3.7893   -1.5411 H       1  UNL1        0.0600
     33 H           2.8747   -2.8682   -4.1076 H       1  UNL1        0.2098
     34 H           4.5229   -3.4246   -0.9451 H       1  UNL1        0.0293
     35 H           4.8633   -2.9951   -2.6187 H       1  UNL1        0.0293
     36 H           4.1282   -5.2495   -3.3760 H       1  UNL1        0.0311
     37 H           3.7883   -7.0997   -1.8587 H       1  UNL1        0.0361
     38 H           2.6443   -5.8469   -1.3972 H       1  UNL1        0.0361
     39 H           6.0026   -6.0633    0.9960 H       1  UNL1        0.1575
     40 H           6.1328   -6.4073   -2.7987 H       1  UNL1        0.0361
     41 H           6.5389   -4.6862   -2.8411 H       1  UNL1        0.0361
     42 H           3.9031   -1.3667   -0.3134 H       1  UNL1        0.0275
     43 H           2.3914   -2.0274    0.3050 H       1  UNL1        0.0275
@<TRIPOS>BOND
     1     1     2    1
     2     2     3    1
     3     3     4    1
     4     4     5    1
     5     4     6    1
     6     6     7    2
     7     6     8    1
     8     8     9    1
     9     9    10    1
    10     9    11    1
    11    11    12    1
    12    12    13    1
    13    13    14    1
    14    14    15    2
    15    14    16   am
    16    16    17   am
    17    17    18    2
    18    17    19    1
    19    12    19    1
    20     8    20    1
    21     2    20    1
    22     1    21    1
    23     1    22    1
    24     1    23    1
    25     2    24    1
    26     3    25    1
    27     3    26    1
    28     4    27    1
    29     5    28    1
    30     5    29    1
    31     5    30    1
    32     8    31    1
    33     9    32    1
    34    10    33    1
    35    11    34    1
    36    11    35    1
    37    12    36    1
    38    13    37    1
    39    13    38    1
    40    16    39    1
    41    19    40    1
    42    19    41    1
    43    20    42    1
    44    20    43    1
