@<TRIPOS>MOLECULE
*****
   31    32     1     0     0
SMALL
bcc


@<TRIPOS>ATOM
      1 C            3.1550    -0.4220     1.1410 c3         1 UNL      -0.099100
      2 C1           2.3750     0.1550    -0.0350 c3         1 UNL      -0.076400
      3 C2           2.9830     0.0030    -1.4690 c3         1 UNL      -0.051700
      4 C3           2.0740     0.6880    -2.5380 ca         1 UNL      -0.079300
      5 C4           2.6220     1.1750    -3.7440 ca         1 UNL      -0.119000
      6 C5           1.8150     1.7270    -4.7450 ca         1 UNL      -0.126000
      7 C6           0.4400     1.8040    -4.5710 ca         1 UNL      -0.122000
      8 C7          -0.1290     1.3360    -3.3910 ca         1 UNL      -0.126000
      9 C8           0.6760     0.7800    -2.3920 ca         1 UNL      -0.119000
     10 C9           3.1140    -1.4780    -1.9100 c3         1 UNL      -0.077400
     11 C10          4.3170    -2.2070    -1.3340 c3         1 UNL      -0.156400
     12 C11          5.5900    -1.4430    -1.5700 c          1 UNL       0.703500
     13 O            6.6910    -1.9840    -1.5460 o          1 UNL      -0.608500
     14 N            5.4730    -0.0860    -1.7010 ns         1 UNL      -0.603500
     15 C12          4.3700     0.6870    -1.4410 c          1 UNL       0.707500
     16 O1           4.5260     1.8790    -1.1720 o          1 UNL      -0.596500
     17 H            2.7070    -0.0840     2.0810 hc         1 UNL       0.039700
     18 H1           4.2040    -0.1140     1.1430 hc         1 UNL       0.039700
     19 H2           3.0950    -1.5130     1.1590 hc         1 UNL       0.039700
     20 H3           2.2230     1.2240     0.1700 hc         1 UNL       0.061700
     21 H4           1.3850    -0.3120     0.0080 hc         1 UNL       0.061700
     22 H5           3.6930     1.1330    -3.9330 ha         1 UNL       0.134500
     23 H6           2.2660     2.0950    -5.6640 ha         1 UNL       0.135000
     24 H7          -0.1900     2.2250    -5.3520 ha         1 UNL       0.135000
     25 H8          -1.2070     1.3940    -3.2500 ha         1 UNL       0.135000
     26 H9           0.1700     0.4170    -1.5020 ha         1 UNL       0.134500
     27 H10          3.2130    -1.5300    -3.0040 hc         1 UNL       0.064200
     28 H11          2.1970    -2.0300    -1.6690 hc         1 UNL       0.064200
     29 H12          4.4080    -3.1860    -1.8160 hc         1 UNL       0.084200
     30 H13          4.2290    -2.3910    -0.2640 hc         1 UNL       0.084200
     31 H14          6.3530     0.4110    -1.7070 hn         1 UNL       0.336500
@<TRIPOS>BOND
     1     1     2 1   
     2     2     3 1   
     3     3     4 1   
     4     4     5 ar  
     5     5     6 ar  
     6     6     7 ar  
     7     7     8 ar  
     8     8     9 ar  
     9     4     9 ar  
    10     3    10 1   
    11    10    11 1   
    12    11    12 1   
    13    12    13 2   
    14    12    14 1   
    15    14    15 1   
    16     3    15 1   
    17    15    16 2   
    18     1    17 1   
    19     1    18 1   
    20     1    19 1   
    21     2    20 1   
    22     2    21 1   
    23     5    22 1   
    24     6    23 1   
    25     7    24 1   
    26     8    25 1   
    27     9    26 1   
    28    10    27 1   
    29    10    28 1   
    30    11    29 1   
    31    11    30 1   
    32    14    31 1   
@<TRIPOS>SUBSTRUCTURE
     1 UNL         1 TEMP              0 ****  ****    0 ROOT
