@<TRIPOS>MOLECULE
*****
 56 58 0 0 0
SMALL
GASTEIGER

@<TRIPOS>ATOM
      1 C           1.4126   -1.0679   -2.8091 C.3     1  UNL1       -0.0616
      2 C           2.8697   -0.7666   -2.4301 C.3     1  UNL1       -0.0297
      3 C           3.6621   -0.4122   -3.6961 C.3     1  UNL1       -0.0616
      4 C           3.0494    0.3090   -1.3068 C.3     1  UNL1        0.0838
      5 C           2.6215    1.6878   -1.8137 C.2     1  UNL1        0.3164
      6 O           3.3888    2.6252   -1.9877 O.2     1  UNL1       -0.2501
      7 O           1.2872    1.7346   -2.0326 O.3     1  UNL1       -0.4410
      8 C           0.7373    2.9609   -2.5426 C.3     1  UNL1        0.2129
      9 C           0.2110    2.7305   -3.9498 C.1     1  UNL1        0.1123
     10 N          -0.2255    2.5394   -5.1173 N.1     1  UNL1       -0.1923
     11 C          -0.3686    3.3960   -1.5937 C.ar    1  UNL1        0.0103
     12 C          -1.1660    2.4511   -0.9232 C.ar    1  UNL1       -0.0538
     13 C          -2.2057    2.8586   -0.0896 C.ar    1  UNL1       -0.0579
     14 C          -2.4620    4.2153    0.0923 C.ar    1  UNL1       -0.0193
     15 C          -1.6333    5.1712   -0.4996 C.ar    1  UNL1        0.1288
     16 O          -1.7712    6.5313   -0.3250 O.3     1  UNL1       -0.4560
     17 C          -2.2281    7.0261    0.8781 C.ar    1  UNL1        0.1284
     18 C          -1.9743    6.4378    2.1223 C.ar    1  UNL1       -0.0193
     19 C          -2.5290    6.9819    3.2818 C.ar    1  UNL1       -0.0583
     20 C          -3.2816    8.1530    3.2124 C.ar    1  UNL1       -0.0615
     21 C          -3.4713    8.7855    1.9844 C.ar    1  UNL1       -0.0583
     22 C          -2.9456    8.2228    0.8193 C.ar    1  UNL1       -0.0193
     23 C          -0.6184    4.7622   -1.3714 C.ar    1  UNL1       -0.0116
     24 C           2.4780   -0.0461    0.0757 C.ar    1  UNL1       -0.0332
     25 C           2.4035   -1.3784    0.5147 C.ar    1  UNL1       -0.0543
     26 C           1.9123   -1.7101    1.7869 C.ar    1  UNL1       -0.0195
     27 C           1.5014   -0.7105    2.6605 C.ar    1  UNL1        0.1269
     28 O           0.9594   -0.9188    3.8979 O.3     1  UNL1       -0.4342
     29 C           1.4503   -2.0517    4.6046 C.3     1  UNL1        0.3893
     30 F           0.9542   -1.9853    5.8657 F       1  UNL1       -0.1663
     31 F           0.9475   -3.1857    4.0571 F       1  UNL1       -0.1663
     32 C           1.5875    0.6160    2.2572 C.ar    1  UNL1       -0.0195
     33 C           2.0893    0.9498    0.9872 C.ar    1  UNL1       -0.0543
     34 H           1.3707   -1.9056   -3.5123 H       1  UNL1        0.0233
     35 H           0.9302   -0.2246   -3.3090 H       1  UNL1        0.0233
     36 H           0.8125   -1.3386   -1.9360 H       1  UNL1        0.0233
     37 H           3.3067   -1.7061   -2.0711 H       1  UNL1        0.0306
     38 H           3.2542    0.4670   -4.2013 H       1  UNL1        0.0233
     39 H           3.6318   -1.2476   -4.4041 H       1  UNL1        0.0233
     40 H           4.7131   -0.2211   -3.4563 H       1  UNL1        0.0233
     41 H           4.1324    0.3949   -1.1326 H       1  UNL1        0.0465
     42 H           1.4925    3.7546   -2.5877 H       1  UNL1        0.0948
     43 H          -0.9884    1.3835   -1.0464 H       1  UNL1        0.0622
     44 H          -2.8177    2.1180    0.4197 H       1  UNL1        0.0619
     45 H          -3.2999    4.5106    0.7177 H       1  UNL1        0.0654
     46 H          -1.3660    5.5430    2.2040 H       1  UNL1        0.0654
     47 H          -2.3731    6.4896    4.2384 H       1  UNL1        0.0619
     48 H          -3.7122    8.5758    4.1162 H       1  UNL1        0.0618
     49 H          -4.0342    9.7140    1.9334 H       1  UNL1        0.0619
     50 H          -3.1025    8.7162   -0.1369 H       1  UNL1        0.0654
     51 H          -0.0185    5.5232   -1.8689 H       1  UNL1        0.0658
     52 H           2.7180   -2.2027   -0.1202 H       1  UNL1        0.0622
     53 H           1.8380   -2.7643    2.0398 H       1  UNL1        0.0654
     54 H           2.5443   -2.0886    4.6532 H       1  UNL1        0.1520
     55 H           1.2686    1.4107    2.9296 H       1  UNL1        0.0654
     56 H           2.1673    2.0084    0.7443 H       1  UNL1        0.0622
@<TRIPOS>BOND
     1     1     2    1
     2     2     3    1
     3     2     4    1
     4     4     5    1
     5     5     6    2
     6     5     7    1
     7     7     8    1
     8     8     9    1
     9     9    10    3
    10     8    11    1
    11    11    12   ar
    12    12    13   ar
    13    13    14   ar
    14    14    15   ar
    15    15    16    1
    16    16    17    1
    17    17    18   ar
    18    18    19   ar
    19    19    20   ar
    20    20    21   ar
    21    21    22   ar
    22    17    22   ar
    23    15    23   ar
    24    11    23   ar
    25     4    24    1
    26    24    25   ar
    27    25    26   ar
    28    26    27   ar
    29    27    28    1
    30    28    29    1
    31    29    30    1
    32    29    31    1
    33    27    32   ar
    34    32    33   ar
    35    24    33   ar
    36     1    34    1
    37     1    35    1
    38     1    36    1
    39     2    37    1
    40     3    38    1
    41     3    39    1
    42     3    40    1
    43     4    41    1
    44     8    42    1
    45    12    43    1
    46    13    44    1
    47    14    45    1
    48    18    46    1
    49    19    47    1
    50    20    48    1
    51    21    49    1
    52    22    50    1
    53    23    51    1
    54    25    52    1
    55    26    53    1
    56    29    54    1
    57    32    55    1
    58    33    56    1
