@<TRIPOS>MOLECULE
*****
 34 36 0 0 0
SMALL
GASTEIGER

@<TRIPOS>ATOM
      1 C           3.4796    0.4728   -0.8987 C.3     1  UNL1       -0.0489
      2 C           2.5874   -0.0801    0.2143 C.3     1  UNL1        0.0158
      3 N           3.0120    0.3844    1.5450 N.pl3   1  UNL1       -0.2833
      4 C           2.3770    1.5448    2.0106 C.ar    1  UNL1        0.0566
      5 C           1.0655    1.4743    2.5047 C.ar    1  UNL1       -0.0385
      6 C           0.4235    2.6112    2.9996 C.ar    1  UNL1       -0.0599
      7 C           1.0749    3.8418    2.9748 C.ar    1  UNL1       -0.0599
      8 C           2.3656    3.9346    2.4542 C.ar    1  UNL1       -0.0385
      9 C           3.0217    2.7838    1.9967 C.ar    1  UNL1        0.0558
     10 N           4.3520    2.8427    1.5054 N.am    1  UNL1       -0.2954
     11 C           4.6577    3.9127    0.5554 C.3     1  UNL1        0.0063
     12 C           5.3432    2.2417    2.2995 C.2     1  UNL1        0.0893
     13 S           6.5913    3.2027    2.9533 S.2     1  UNL1       -0.0343
     14 C           5.2861    0.7324    2.4817 C.ar    1  UNL1        0.0438
     15 C           6.3897    0.0735    3.0670 C.ar    1  UNL1       -0.0475
     16 C           6.4794   -1.3125    3.0853 C.ar    1  UNL1       -0.0428
     17 C           5.4724   -2.0267    2.4882 C.ar    1  UNL1        0.0297
     18 N           4.3894   -1.4499    1.9335 N.ar    1  UNL1       -0.2393
     19 C           4.2669   -0.0849    1.9599 C.ar    1  UNL1        0.1350
     20 H           3.1084    0.1547   -1.8777 H       1  UNL1        0.0245
     21 H           4.5105    0.1172   -0.8030 H       1  UNL1        0.0245
     22 H           3.5007    1.5665   -0.8918 H       1  UNL1        0.0245
     23 H           2.5858   -1.1757    0.1666 H       1  UNL1        0.0465
     24 H           1.5535    0.2228    0.0061 H       1  UNL1        0.0465
     25 H           0.5545    0.5148    2.5385 H       1  UNL1        0.0637
     26 H          -0.5769    2.5312    3.4180 H       1  UNL1        0.0618
     27 H           0.5856    4.7249    3.3776 H       1  UNL1        0.0618
     28 H           2.8751    4.8940    2.4657 H       1  UNL1        0.0637
     29 H           3.7677    4.1939   -0.0114 H       1  UNL1        0.0432
     30 H           5.3933    3.5145   -0.1547 H       1  UNL1        0.0432
     31 H           5.0831    4.7894    1.0516 H       1  UNL1        0.0432
     32 H           7.2176    0.6242    3.5052 H       1  UNL1        0.0626
     33 H           7.3300   -1.8124    3.5330 H       1  UNL1        0.0633
     34 H           5.5013   -3.1104    2.4499 H       1  UNL1        0.0830
@<TRIPOS>BOND
     1     1     2    1
     2     2     3    1
     3     3     4    1
     4     4     5   ar
     5     5     6   ar
     6     6     7   ar
     7     7     8   ar
     8     8     9   ar
     9     4     9   ar
    10     9    10    1
    11    10    11    1
    12    10    12    1
    13    12    13    2
    14    12    14    1
    15    14    15   ar
    16    15    16   ar
    17    16    17   ar
    18    17    18   ar
    19    18    19   ar
    20    14    19   ar
    21     3    19    1
    22     1    20    1
    23     1    21    1
    24     1    22    1
    25     2    23    1
    26     2    24    1
    27     5    25    1
    28     6    26    1
    29     7    27    1
    30     8    28    1
    31    11    29    1
    32    11    30    1
    33    11    31    1
    34    15    32    1
    35    16    33    1
    36    17    34    1
