@<TRIPOS>MOLECULE
*****
   51    55     1     0     0
SMALL
bcc


@<TRIPOS>ATOM
      1 C            1.2320     0.5790    -0.1580 c2         1 UNL      -0.184000
      2 C1           2.5690     0.4800    -0.0840 c2         1 UNL      -0.147400
      3 C2           3.1980    -0.8820     0.1370 c3         1 UNL      -0.060900
      4 C3           3.5560     1.6480    -0.1760 c3         1 UNL       0.170300
      5 C4           4.5640     1.4480    -1.2850 c3         1 UNL      -0.030100
      6 C5           4.9740     2.8630    -1.4700 ca         1 UNL      -0.205300
      7 C6           3.9890     3.6930    -1.0190 ca         1 UNL       0.178100
      8 C7           4.0720     5.0490    -1.3240 ca         1 UNL      -0.197000
      9 C8           5.1500     5.5470    -2.1490 ca         1 UNL      -0.008000
     10 C9           6.1500     4.6810    -2.6400 ca         1 UNL      -0.279600
     11 C10          6.0310     3.3340    -2.2250 ca         1 UNL       0.211100
     12 O            6.8160     2.3420    -2.7520 os         1 UNL      -0.315900
     13 C11          6.8660     2.6800    -4.1130 c3         1 UNL       0.111100
     14 C12          6.8990     1.4570    -4.9540 c3         1 UNL       0.132400
     15 O1           6.7710     1.9940    -6.2740 os         1 UNL      -0.320900
     16 C13          8.0470     2.4590    -6.5530 ca         1 UNL       0.144100
     17 C14          8.6640     1.5520    -7.4170 ca         1 UNL      -0.222000
     18 C15          9.9950     1.2770    -7.2050 ca         1 UNL       0.136100
     19 O2          10.5180     0.0580    -7.5840 os         1 UNL      -0.316900
     20 C16          9.6910    -1.0530    -7.1760 c3         1 UNL       0.110700
     21 C17         10.7680     2.1910    -6.4710 ca         1 UNL       0.043100
     22 O3          12.0720     1.8210    -6.2290 os         1 UNL      -0.326900
     23 C18         13.0710     2.7450    -6.6450 c3         1 UNL       0.114700
     24 C19         10.1420     3.2490    -5.7340 ca         1 UNL      -0.059000
     25 C20          8.7230     3.3260    -5.6470 ca         1 UNL      -0.161300
     26 C21          8.0050     3.6910    -4.2920 c3         1 UNL      -0.130400
     27 C22          7.2270     4.9700    -3.8140 c          1 UNL       0.600700
     28 O4           7.4240     6.0980    -4.2520 o          1 UNL      -0.526100
     29 O5           2.9760     2.9930    -0.3880 os         1 UNL      -0.311900
     30 H            0.5950    -0.2990    -0.0660 ha         1 UNL       0.122500
     31 H1           0.7310     1.5300    -0.3000 ha         1 UNL       0.122500
     32 H2           2.4540    -1.6870     0.1900 hc         1 UNL       0.044700
     33 H3           3.7630    -0.8970     1.0750 hc         1 UNL       0.044700
     34 H4           3.8800    -1.1410    -0.6820 hc         1 UNL       0.044700
     35 H5           4.0810     1.7020     0.7900 h1         1 UNL       0.076700
     36 H6           4.0740     1.0970    -2.2280 hc         1 UNL       0.071700
     37 H7           5.3790     0.7710    -1.0380 hc         1 UNL       0.071700
     38 H8           3.2800     5.7200    -0.9830 ha         1 UNL       0.160000
     39 H9           5.1380     6.5970    -2.4320 ha         1 UNL       0.160000
     40 H10          5.9200     3.1470    -4.4640 h1         1 UNL       0.079700
     41 H11          6.0390     0.8160    -4.7420 h1         1 UNL       0.074200
     42 H12          7.7990     0.8490    -4.7850 h1         1 UNL       0.074200
     43 H13          8.0330     0.8650    -7.9750 ha         1 UNL       0.157000
     44 H14         10.2720    -1.9780    -7.2620 h1         1 UNL       0.047367
     45 H15          8.8180    -1.1650    -7.8300 h1         1 UNL       0.047367
     46 H16          9.3660    -0.9660    -6.1310 h1         1 UNL       0.047367
     47 H17         13.6190     2.3320    -7.5010 h1         1 UNL       0.043033
     48 H18         13.7860     2.8400    -5.8220 h1         1 UNL       0.043033
     49 H19         12.6910     3.7360    -6.9070 h1         1 UNL       0.043033
     50 H20         10.7700     3.8420    -5.0710 ha         1 UNL       0.175000
     51 H21          8.7750     3.5680    -3.5170 hc         1 UNL       0.097700
@<TRIPOS>BOND
     1     1     2 2   
     2     2     3 1   
     3     2     4 1   
     4     4     5 1   
     5     5     6 1   
     6     6     7 ar  
     7     7     8 ar  
     8     8     9 ar  
     9     9    10 ar  
    10    10    11 ar  
    11     6    11 ar  
    12    11    12 1   
    13    12    13 1   
    14    13    14 1   
    15    14    15 1   
    16    15    16 1   
    17    16    17 ar  
    18    17    18 ar  
    19    18    19 1   
    20    19    20 1   
    21    18    21 ar  
    22    21    22 1   
    23    22    23 1   
    24    21    24 ar  
    25    24    25 ar  
    26    16    25 ar  
    27    25    26 1   
    28    13    26 1   
    29    26    27 1   
    30    10    27 1   
    31    27    28 2   
    32     7    29 1   
    33     4    29 1   
    34     1    30 1   
    35     1    31 1   
    36     3    32 1   
    37     3    33 1   
    38     3    34 1   
    39     4    35 1   
    40     5    36 1   
    41     5    37 1   
    42     8    38 1   
    43     9    39 1   
    44    13    40 1   
    45    14    41 1   
    46    14    42 1   
    47    17    43 1   
    48    20    44 1   
    49    20    45 1   
    50    20    46 1   
    51    23    47 1   
    52    23    48 1   
    53    23    49 1   
    54    24    50 1   
    55    26    51 1   
@<TRIPOS>SUBSTRUCTURE
     1 UNL         1 TEMP              0 ****  ****    0 ROOT
