@<TRIPOS>MOLECULE
*****
   17    18     1     0     0
SMALL
bcc


@<TRIPOS>ATOM
      1 O            1.2980     0.6000    -0.2510 o          1 UNL      -0.527100
      2 C            2.3400    -0.0070    -0.0350 c          1 UNL       0.578500
      3 C1           3.1060    -0.6580    -1.1170 ca         1 UNL      -0.202600
      4 C2           2.6450    -0.5860    -2.4470 ca         1 UNL      -0.064000
      5 C3           3.3650    -1.1990    -3.4770 ca         1 UNL      -0.131000
      6 C4           4.5200    -1.8700    -3.1380 ca         1 UNL       0.089100
      7 C5           4.9650    -1.9400    -1.8370 ca         1 UNL       0.039100
      8 C6           4.2840    -1.3420    -0.7980 ca         1 UNL      -0.075000
      9 O1           6.1170    -2.6540    -1.7220 os         1 UNL      -0.331900
     10 C7           6.3260    -3.0580    -3.0920 c3         1 UNL       0.321200
     11 O2           5.3380    -2.5290    -4.0010 os         1 UNL      -0.329900
     12 H            2.7520    -0.0950     0.9840 h4         1 UNL       0.001200
     13 H1           1.7240    -0.0530    -2.6760 ha         1 UNL       0.162000
     14 H2           3.0250    -1.1520    -4.5060 ha         1 UNL       0.162000
     15 H3           4.6590    -1.4110     0.2170 ha         1 UNL       0.158000
     16 H4           6.2950    -4.1520    -3.1420 h2         1 UNL       0.076700
     17 H5           7.3180    -2.7180    -3.4120 h2         1 UNL       0.076700
@<TRIPOS>BOND
     1     1     2 2   
     2     2     3 1   
     3     3     4 ar  
     4     4     5 ar  
     5     5     6 ar  
     6     6     7 ar  
     7     7     8 ar  
     8     3     8 ar  
     9     7     9 1   
    10     9    10 1   
    11    10    11 1   
    12     6    11 1   
    13     2    12 1   
    14     4    13 1   
    15     5    14 1   
    16     8    15 1   
    17    10    16 1   
    18    10    17 1   
@<TRIPOS>SUBSTRUCTURE
     1 UNL         1 TEMP              0 ****  ****    0 ROOT
