@<TRIPOS>MOLECULE
*****
 24 26 0 0 0
SMALL
GASTEIGER

@<TRIPOS>ATOM
      1 C           1.0380    0.3543   -0.3423 C.3     1  UNL1        0.0791
      2 O           2.4121    0.1263   -0.0504 O.3     1  UNL1       -0.4884
      3 C           2.9917   -0.9543   -0.6527 C.ar    1  UNL1        0.2061
      4 C           3.9993   -1.6401    0.0391 C.ar    1  UNL1        0.1799
      5 O           4.4450   -1.3470    1.2975 O.2     1  UNL1       -0.4591
      6 C           5.4203   -2.2409    1.6010 C.ar    1  UNL1        0.0933
      7 C           5.6139   -3.1163    0.5594 C.ar    1  UNL1       -0.0160
      8 C           4.6994   -2.7368   -0.4595 C.ar    1  UNL1        0.0246
      9 C           4.3965   -3.2057   -1.7501 C.ar    1  UNL1       -0.0401
     10 C           3.4103   -2.5424   -2.4945 C.ar    1  UNL1        0.0221
     11 C           3.0846   -2.9839   -3.8451 C.ar    1  UNL1       -0.0442
     12 C           2.1578   -2.3367   -4.5572 C.ar    1  UNL1        0.0236
     13 C           1.4374   -1.1714   -4.0278 C.ar    1  UNL1        0.3373
     14 O           0.5829   -0.5994   -4.6934 O.2     1  UNL1       -0.2452
     15 O           1.7785   -0.7688   -2.7447 O.2     1  UNL1       -0.4183
     16 C           2.7364   -1.4409   -1.9476 C.ar    1  UNL1        0.1841
     17 H           0.6303    0.9922    0.4474 H       1  UNL1        0.0660
     18 H           0.4592   -0.5762   -0.3519 H       1  UNL1        0.0660
     19 H           0.9280    0.9031   -1.2820 H       1  UNL1        0.0660
     20 H           5.8724   -2.1243    2.5767 H       1  UNL1        0.1030
     21 H           6.3300   -3.9264    0.5347 H       1  UNL1        0.0655
     22 H           4.9328   -4.0579   -2.1571 H       1  UNL1        0.0632
     23 H           3.6046   -3.8407   -4.2601 H       1  UNL1        0.0627
     24 H           1.8920   -2.6388   -5.5620 H       1  UNL1        0.0689
@<TRIPOS>BOND
     1     1     2    1
     2     2     3    1
     3     3     4   ar
     4     4     5   ar
     5     5     6   ar
     6     6     7   ar
     7     7     8   ar
     8     4     8   ar
     9     8     9   ar
    10     9    10   ar
    11    10    11   ar
    12    11    12   ar
    13    12    13   ar
    14    13    14    2
    15    13    15   ar
    16    15    16   ar
    17     3    16   ar
    18    10    16   ar
    19     1    17    1
    20     1    18    1
    21     1    19    1
    22     6    20    1
    23     7    21    1
    24     9    22    1
    25    11    23    1
    26    12    24    1
