@<TRIPOS>MOLECULE
*****
   17    18     1     0     0
SMALL
bcc


@<TRIPOS>ATOM
      1 C            1.3870    -0.2430     0.0800 ca         1 UNL      -0.123000
      2 C1           0.4960    -1.3100     0.0050 ca         1 UNL      -0.131500
      3 C2          -0.8780    -1.0690    -0.0710 ca         1 UNL      -0.111000
      4 C3          -1.3930     0.2390    -0.0770 ca         1 UNL      -0.089300
      5 C4          -2.8720     0.4950    -0.1970 cx         1 UNL       0.108400
      6 C5          -3.6150     1.2190     0.9010 cx         1 UNL       0.058400
      7 O           -3.7470    -0.1930     0.7160 op         1 UNL      -0.403600
      8 C6          -0.4730     1.2970     0.0000 ca         1 UNL      -0.111000
      9 C7           0.9030     1.0620     0.0800 ca         1 UNL      -0.131500
     10 H            2.4560    -0.4280     0.1360 ha         1 UNL       0.132000
     11 H1           0.8680    -2.3310     0.0060 ha         1 UNL       0.133500
     12 H2          -1.5640    -1.9120    -0.1280 ha         1 UNL       0.141000
     13 H3          -3.2480     0.6240    -1.2080 h1         1 UNL       0.096700
     14 H4          -4.4540     1.8430     0.6210 h1         1 UNL       0.080200
     15 H5          -3.0710     1.5580     1.7740 h1         1 UNL       0.080200
     16 H6          -0.8320     2.3240    -0.0040 ha         1 UNL       0.141000
     17 H7           1.5940     1.8990     0.1390 ha         1 UNL       0.133500
@<TRIPOS>BOND
     1     1     2 ar  
     2     2     3 ar  
     3     3     4 ar  
     4     4     5 1   
     5     5     6 1   
     6     6     7 1   
     7     5     7 1   
     8     4     8 ar  
     9     8     9 ar  
    10     1     9 ar  
    11     1    10 1   
    12     2    11 1   
    13     3    12 1   
    14     5    13 1   
    15     6    14 1   
    16     6    15 1   
    17     8    16 1   
    18     9    17 1   
@<TRIPOS>SUBSTRUCTURE
     1 UNL         1 TEMP              0 ****  ****    0 ROOT
