@<TRIPOS>MOLECULE
*****
 29 30 0 0 0
SMALL
GASTEIGER

@<TRIPOS>ATOM
      1 C           2.1841    2.1205   -0.5508 C.3     1  UNL1        0.0032
      2 N           2.9393    0.8985   -0.4749 N.am    1  UNL1       -0.2839
      3 C           4.0682    0.7168   -1.2241 C.2     1  UNL1        0.4054
      4 O           4.5994    1.5977   -1.8912 O.2     1  UNL1       -0.2260
      5 O           4.4655   -0.6164   -1.1594 O.3     1  UNL1       -0.4111
      6 C           5.3146   -1.0990   -2.1793 C.ar    1  UNL1        0.1412
      7 C           5.0340   -0.7775   -3.5146 C.ar    1  UNL1       -0.0187
      8 C           5.8222   -1.2925   -4.5399 C.ar    1  UNL1       -0.0583
      9 C           6.8829   -2.1377   -4.2340 C.ar    1  UNL1       -0.0611
     10 C           7.1413   -2.4863   -2.9051 C.ar    1  UNL1       -0.0503
     11 C           6.3438   -1.9984   -1.8515 C.ar    1  UNL1        0.0502
     12 C           6.5966   -2.4484   -0.4315 C.3     1  UNL1        0.1889
     13 O           7.5726   -1.6142    0.2097 O.3     1  UNL1       -0.3448
     14 C           8.6538   -2.4833    0.5482 C.3     1  UNL1        0.0744
     15 C           8.0245   -3.8465    0.6292 C.3     1  UNL1        0.0744
     16 O           7.0415   -3.8200   -0.4003 O.3     1  UNL1       -0.3448
     17 H           1.2646    2.0063    0.0271 H       1  UNL1        0.0427
     18 H           1.9392    2.3356   -1.5962 H       1  UNL1        0.0427
     19 H           2.7838    2.9400   -0.1467 H       1  UNL1        0.0427
     20 H           2.5375    0.0736   -0.0511 H       1  UNL1        0.1517
     21 H           4.2031   -0.1253   -3.7696 H       1  UNL1        0.0654
     22 H           5.6048   -1.0330   -5.5717 H       1  UNL1        0.0619
     23 H           7.5024   -2.5385   -5.0310 H       1  UNL1        0.0618
     24 H           7.9630   -3.1683   -2.6937 H       1  UNL1        0.0623
     25 H           5.6753   -2.4051    0.1583 H       1  UNL1        0.0966
     26 H           9.1202   -2.1726    1.4865 H       1  UNL1        0.0584
     27 H           9.3964   -2.4316   -0.2541 H       1  UNL1        0.0584
     28 H           7.5133   -4.0015    1.5853 H       1  UNL1        0.0584
     29 H           8.7366   -4.6611    0.4679 H       1  UNL1        0.0584
@<TRIPOS>BOND
     1     1     2    1
     2     2     3   am
     3     3     4    2
     4     3     5    1
     5     5     6    1
     6     6     7   ar
     7     7     8   ar
     8     8     9   ar
     9     9    10   ar
    10    10    11   ar
    11     6    11   ar
    12    11    12    1
    13    12    13    1
    14    13    14    1
    15    14    15    1
    16    15    16    1
    17    12    16    1
    18     1    17    1
    19     1    18    1
    20     1    19    1
    21     2    20    1
    22     7    21    1
    23     8    22    1
    24     9    23    1
    25    10    24    1
    26    12    25    1
    27    14    26    1
    28    14    27    1
    29    15    28    1
    30    15    29    1
