@<TRIPOS>MOLECULE
*****
   30    32     1     0     0
SMALL
bcc


@<TRIPOS>ATOM
      1 N            1.3490     0.0350     0.1430 nv         1 UNL      -0.937500
      2 C            2.7240     0.0210     0.0490 ca         1 UNL       0.940900
      3 N1           3.3220    -1.1610    -0.0530 nb         1 UNL      -0.855000
      4 C1           4.6630    -1.1480    -0.1070 ca         1 UNL       0.721900
      5 N2           5.2720    -2.4030    -0.2770 nv         1 UNL      -0.955500
      6 C2           5.4340     0.0090    -0.0750 ca         1 UNL      -0.009000
      7 N3           6.8000     0.0100    -0.0800 nb         1 UNL      -0.571000
      8 C3           7.4180     1.2170    -0.0120 cp         1 UNL       0.276500
      9 C4           8.8990     1.1640     0.0060 cp         1 UNL      -0.145500
     10 C5           9.5920     0.1480    -0.6810 ca         1 UNL      -0.109500
     11 C6          10.9900     0.1030    -0.7080 ca         1 UNL      -0.135500
     12 C7          11.7330     1.0750    -0.0440 ca         1 UNL      -0.122000
     13 C8          11.0780     2.0720     0.6690 ca         1 UNL      -0.135500
     14 C9           9.6800     2.1030     0.7070 ca         1 UNL      -0.109500
     15 C10          6.6480     2.3930     0.0080 ca         1 UNL       0.602900
     16 N4           7.1880     3.6810     0.0500 nv         1 UNL      -0.945500
     17 N5           5.3000     2.3650     0.0200 nb         1 UNL      -0.728000
     18 C11          4.6790     1.1820    -0.0040 ca         1 UNL       0.676000
     19 N6           3.3500     1.1910     0.0450 nb         1 UNL      -0.785000
     20 H            0.9520    -0.8120    -0.2390 hn         1 UNL       0.436300
     21 H1           0.9760     0.9170    -0.1750 hn         1 UNL       0.436300
     22 H2           4.5840    -3.1340    -0.1300 hn         1 UNL       0.449300
     23 H3           6.1090    -2.4870     0.2950 hn         1 UNL       0.449300
     24 H4           9.0360    -0.6240    -1.2120 ha         1 UNL       0.144500
     25 H5          11.4960    -0.6920    -1.2500 ha         1 UNL       0.135000
     26 H6          12.8180     1.0490    -0.0750 ha         1 UNL       0.134000
     27 H7          11.6500     2.8270     1.2020 ha         1 UNL       0.135000
     28 H8           9.2080     2.8800     1.3070 ha         1 UNL       0.144500
     29 H9           7.8830     3.8250    -0.6750 hn         1 UNL       0.431800
     30 H10          6.4160     4.3400    -0.0150 hn         1 UNL       0.431800
@<TRIPOS>BOND
     1     1     2 1   
     2     2     3 ar  
     3     3     4 ar  
     4     4     5 1   
     5     4     6 ar  
     6     6     7 ar  
     7     7     8 ar  
     8     8     9 1   
     9     9    10 ar  
    10    10    11 ar  
    11    11    12 ar  
    12    12    13 ar  
    13    13    14 ar  
    14     9    14 ar  
    15     8    15 ar  
    16    15    16 1   
    17    15    17 ar  
    18    17    18 ar  
    19     6    18 ar  
    20    18    19 ar  
    21     2    19 ar  
    22     1    20 1   
    23     1    21 1   
    24     5    22 1   
    25     5    23 1   
    26    10    24 1   
    27    11    25 1   
    28    12    26 1   
    29    13    27 1   
    30    14    28 1   
    31    16    29 1   
    32    16    30 1   
@<TRIPOS>SUBSTRUCTURE
     1 UNL         1 TEMP              0 ****  ****    0 ROOT
