@<TRIPOS>MOLECULE
*****
 49 49 0 0 0
SMALL
GASTEIGER

@<TRIPOS>ATOM
      1 C           1.1712   -0.5586   -0.5947 C.3     1  UNL1       -0.0632
      2 C           2.6298   -0.2797   -0.2544 C.3     1  UNL1       -0.0319
      3 C           3.1379    0.8923   -1.0700 C.3     1  UNL1        0.0551
      4 O           4.4815    1.2531   -0.7036 O.3     1  UNL1       -0.3234
      5 P           5.0582    2.6203   -1.5932 P.3     1  UNL1        0.2296
      6 S           3.9783    3.8418   -0.3518 S.2     1  UNL1        0.0032
      7 O           6.5226    2.4831   -0.7773 O.3     1  UNL1       -0.3234
      8 C           6.9441    1.2775   -0.1685 C.3     1  UNL1        0.0551
      9 C           8.1869    1.4635    0.7008 C.3     1  UNL1       -0.0319
     10 C           7.9262    2.3539    1.9086 C.3     1  UNL1       -0.0632
     11 S           5.7648    4.2956   -2.6833 S.3     1  UNL1       -0.0646
     12 C           4.6286    4.7381   -3.9615 C.3     1  UNL1        0.0789
     13 C           3.2226    5.1683   -3.5259 C.2     1  UNL1        0.2261
     14 O           3.0279    5.9208   -2.5920 O.2     1  UNL1       -0.2747
     15 N           2.1997    4.6651   -4.3439 N.am    1  UNL1       -0.2980
     16 C           2.4757    4.1456   -5.6820 C.3     1  UNL1        0.0150
     17 C           1.5610    4.7376   -6.7393 C.3     1  UNL1       -0.0371
     18 C           0.1045    4.5673   -6.3528 C.3     1  UNL1       -0.0500
     19 C          -0.1611    5.1272   -4.9582 C.3     1  UNL1       -0.0345
     20 C           0.7920    4.5364   -3.9028 C.3     1  UNL1        0.0232
     21 C           0.4081    5.0638   -2.5218 C.3     1  UNL1       -0.0464
     22 H           0.7931   -1.4058   -0.0175 H       1  UNL1        0.0230
     23 H           1.0547   -0.7861   -1.6593 H       1  UNL1        0.0230
     24 H           0.5437    0.3114   -0.3666 H       1  UNL1        0.0230
     25 H           3.2463   -1.1651   -0.4442 H       1  UNL1        0.0285
     26 H           2.7223   -0.0543    0.8144 H       1  UNL1        0.0285
     27 H           2.4527    1.7269   -0.8885 H       1  UNL1        0.0564
     28 H           3.1083    0.6820   -2.1445 H       1  UNL1        0.0564
     29 H           7.1558    0.5724   -0.9780 H       1  UNL1        0.0564
     30 H           6.1846    0.8528    0.4911 H       1  UNL1        0.0564
     31 H           9.0056    1.8851    0.1112 H       1  UNL1        0.0285
     32 H           8.5031    0.4764    1.0603 H       1  UNL1        0.0285
     33 H           7.6644    3.3723    1.6060 H       1  UNL1        0.0230
     34 H           8.8227    2.4130    2.5340 H       1  UNL1        0.0230
     35 H           7.1149    1.9529    2.5275 H       1  UNL1        0.0230
     36 H           4.5997    3.8322   -4.5640 H       1  UNL1        0.0476
     37 H           5.0421    5.5583   -4.5599 H       1  UNL1        0.0476
     38 H           2.3796    3.0567   -5.6214 H       1  UNL1        0.0465
     39 H           3.4888    4.3806   -6.0182 H       1  UNL1        0.0465
     40 H           1.7628    4.2475   -7.6970 H       1  UNL1        0.0280
     41 H           1.7902    5.8025   -6.8622 H       1  UNL1        0.0280
     42 H          -0.1564    3.5053   -6.3817 H       1  UNL1        0.0266
     43 H          -0.5265    5.0786   -7.0842 H       1  UNL1        0.0266
     44 H          -1.2004    4.9111   -4.6855 H       1  UNL1        0.0283
     45 H          -0.0496    6.2174   -4.9772 H       1  UNL1        0.0283
     46 H           0.6244    3.4502   -3.8705 H       1  UNL1        0.0498
     47 H           0.6265    6.1311   -2.4112 H       1  UNL1        0.0248
     48 H           0.9246    4.5110   -1.7310 H       1  UNL1        0.0248
     49 H          -0.6655    4.9359   -2.3485 H       1  UNL1        0.0248
@<TRIPOS>BOND
     1     1     2    1
     2     2     3    1
     3     3     4    1
     4     4     5    1
     5     5     6    2
     6     5     7    1
     7     7     8    1
     8     8     9    1
     9     9    10    1
    10     5    11    1
    11    11    12    1
    12    12    13    1
    13    13    14    2
    14    13    15   am
    15    15    16    1
    16    16    17    1
    17    17    18    1
    18    18    19    1
    19    19    20    1
    20    15    20    1
    21    20    21    1
    22     1    22    1
    23     1    23    1
    24     1    24    1
    25     2    25    1
    26     2    26    1
    27     3    27    1
    28     3    28    1
    29     8    29    1
    30     8    30    1
    31     9    31    1
    32     9    32    1
    33    10    33    1
    34    10    34    1
    35    10    35    1
    36    12    36    1
    37    12    37    1
    38    16    38    1
    39    16    39    1
    40    17    40    1
    41    17    41    1
    42    18    42    1
    43    18    43    1
    44    19    44    1
    45    19    45    1
    46    20    46    1
    47    21    47    1
    48    21    48    1
    49    21    49    1
