@<TRIPOS>MOLECULE
*****
   10    10     1     0     0
SMALL
bcc


@<TRIPOS>ATOM
      1 N            2.1240     0.0730    -0.1640 nv         1 UNL      -0.885500
      2 C            0.8040    -0.1600    -0.0970 cc         1 UNL       0.600300
      3 N1           0.2910    -1.3650    -0.0510 nd         1 UNL      -0.692000
      4 C1          -1.0860    -1.2860     0.0090 cd         1 UNL       0.357200
      5 C2          -1.6080    -0.0120     0.0240 cc         1 UNL      -0.269400
      6 S           -0.3310     1.1290    -0.0410 ss         1 UNL      -0.123300
      7 H            2.7180    -0.7110     0.0820 hn         1 UNL       0.395300
      8 H1           2.4650     0.9730     0.1480 hn         1 UNL       0.395300
      9 H2          -1.6670    -2.2000     0.0420 h4         1 UNL       0.043100
     10 H3          -2.6430     0.2930     0.0670 h4         1 UNL       0.181000
@<TRIPOS>BOND
     1     1     2 1   
     2     2     3 2   
     3     3     4 1   
     4     4     5 2   
     5     5     6 1   
     6     2     6 1   
     7     1     7 1   
     8     1     8 1   
     9     4     9 1   
    10     5    10 1   
@<TRIPOS>SUBSTRUCTURE
     1 UNL         1 TEMP              0 ****  ****    0 ROOT
