@<TRIPOS>MOLECULE
*****
   20    21     1     0     0
SMALL
bcc


@<TRIPOS>ATOM
      1 O            1.3220    -0.0240    -0.7140 o          1 UNL      -0.617500
      2 C            2.4440    -0.0880    -0.2230 c          1 UNL       0.817500
      3 N            3.0320    -1.2830     0.0320 ns         1 UNL      -0.593500
      4 C1           3.9240    -1.4770     1.0580 c          1 UNL       0.721500
      5 O1           3.9340    -2.5680     1.6310 o          1 UNL      -0.588500
      6 C2           4.8480    -0.2690     1.3900 cy         1 UNL      -0.238000
      7 C3           6.2260    -0.2800     0.6440 cy         1 UNL      -0.053400
      8 C4           6.8750     0.2370     1.9380 cy         1 UNL      -0.087400
      9 C5           5.6920    -0.3760     2.7080 cy         1 UNL      -0.053400
     10 C6           4.0080     1.0360     1.2170 c          1 UNL       0.721500
     11 O2           4.1000     2.0470     1.9140 o          1 UNL      -0.588500
     12 N1           3.0920     1.0290     0.1940 ns         1 UNL      -0.593500
     13 H            2.4390    -2.0790    -0.1610 hn         1 UNL       0.358500
     14 H1           6.3090     0.3860    -0.2190 hc         1 UNL       0.076700
     15 H2           6.5640    -1.2800     0.3470 hc         1 UNL       0.076700
     16 H3           6.9220     1.3310     1.9980 hc         1 UNL       0.066700
     17 H4           7.8610    -0.1710     2.1700 hc         1 UNL       0.066700
     18 H5           5.3400     0.2110     3.5610 hc         1 UNL       0.076700
     19 H6           5.8780    -1.4020     3.0490 hc         1 UNL       0.076700
     20 H7           2.5480     1.8780     0.1140 hn         1 UNL       0.358500
@<TRIPOS>BOND
     1     1     2 2   
     2     2     3 1   
     3     3     4 1   
     4     4     5 2   
     5     4     6 1   
     6     6     7 1   
     7     7     8 1   
     8     8     9 1   
     9     6     9 1   
    10     6    10 1   
    11    10    11 2   
    12    10    12 1   
    13     2    12 1   
    14     3    13 1   
    15     7    14 1   
    16     7    15 1   
    17     8    16 1   
    18     8    17 1   
    19     9    18 1   
    20     9    19 1   
    21    12    20 1   
@<TRIPOS>SUBSTRUCTURE
     1 UNL         1 TEMP              0 ****  ****    0 ROOT
