@<TRIPOS>MOLECULE
*****
 65 67 0 0 0
SMALL
GASTEIGER

@<TRIPOS>ATOM
      1 C           8.9693    2.2061   10.2338 C.3     1  UNL1       -0.0645
      2 C           7.8598    1.5912    9.3898 C.3     1  UNL1       -0.0432
      3 C           8.3398    0.3757    8.5756 C.3     1  UNL1        0.0534
      4 C           8.8233   -0.7602    9.4767 C.3     1  UNL1       -0.0523
      5 C           7.2422   -0.1577    7.6795 C.2     1  UNL1        0.3102
      6 O           6.0464   -0.0976    7.9325 O.2     1  UNL1       -0.2505
      7 O           7.7929   -0.7743    6.5715 O.3     1  UNL1       -0.4605
      8 C           6.8528   -1.5007    5.7538 C.3     1  UNL1        0.1106
      9 C           6.7363   -2.9430    6.2934 C.3     1  UNL1       -0.0090
     10 C           7.5659   -4.0246    5.5705 C.3     1  UNL1       -0.0218
     11 C           6.9433   -5.4001    5.8391 C.3     1  UNL1       -0.0588
     12 C           7.5578   -3.8430    4.0907 C.2     1  UNL1       -0.0775
     13 C           7.2422   -2.6998    3.5132 C.2     1  UNL1       -0.0444
     14 C           7.0254   -2.5805    2.0987 C.2     1  UNL1       -0.0621
     15 C           8.0333   -1.9243    1.5042 C.2     1  UNL1       -0.0806
     16 C           8.5043   -0.5687    2.0918 C.3     1  UNL1       -0.0219
     17 C          10.0330   -0.6218    1.8124 C.3     1  UNL1       -0.0587
     18 C           8.0881   -0.2620    3.6470 C.3     1  UNL1       -0.0247
     19 C           7.3287    1.1048    3.9958 C.3     1  UNL1       -0.0457
     20 C           7.8385    2.5326    3.7460 C.3     1  UNL1       -0.0153
     21 C           6.8497    3.6723    4.2417 C.3     1  UNL1        0.1054
     22 C           6.6035    3.8390    5.7463 C.3     1  UNL1        0.0109
     23 C           5.2762    3.2617    6.2114 C.3     1  UNL1        0.0686
     24 O           5.0953    3.6229    7.5859 O.3     1  UNL1       -0.3911
     25 C           4.1265    3.8290    5.4063 C.3     1  UNL1        0.0710
     26 C           4.4022    3.9396    3.9365 C.2     1  UNL1        0.3098
     27 O           3.5117    4.2835    3.1619 O.2     1  UNL1       -0.2507
     28 O           5.6223    3.5928    3.4753 O.3     1  UNL1       -0.4612
     29 C           7.0716   -1.3719    4.2149 C.3     1  UNL1        0.0243
     30 H           8.6155    3.1153   10.7294 H       1  UNL1        0.0230
     31 H           9.8308    2.4697    9.6127 H       1  UNL1        0.0230
     32 H           9.3062    1.5161   11.0143 H       1  UNL1        0.0230
     33 H           7.4709    2.3571    8.7083 H       1  UNL1        0.0270
     34 H           7.0250    1.3137   10.0460 H       1  UNL1        0.0270
     35 H           9.1585    0.7067    7.9271 H       1  UNL1        0.0410
     36 H           8.1245   -0.9371   10.3026 H       1  UNL1        0.0238
     37 H           9.8029   -0.5258    9.9051 H       1  UNL1        0.0238
     38 H           8.9196   -1.6989    8.9216 H       1  UNL1        0.0238
     39 H           5.8648   -1.0477    5.9093 H       1  UNL1        0.0740
     40 H           5.6782   -3.2203    6.2279 H       1  UNL1        0.0307
     41 H           6.9912   -2.9739    7.3629 H       1  UNL1        0.0307
     42 H           8.5998   -4.0159    5.9371 H       1  UNL1        0.0342
     43 H           5.9555   -5.4773    5.3639 H       1  UNL1        0.0235
     44 H           6.8177   -5.5883    6.9083 H       1  UNL1        0.0235
     45 H           7.5639   -6.2008    5.4198 H       1  UNL1        0.0235
     46 H           7.7636   -4.7151    3.4655 H       1  UNL1        0.0578
     47 H           6.0333   -2.1307    1.9188 H       1  UNL1        0.0617
     48 H           8.8774   -2.6155    1.3439 H       1  UNL1        0.0575
     49 H           8.0868    0.2147    1.4500 H       1  UNL1        0.0343
     50 H          10.5429   -1.3550    2.4534 H       1  UNL1        0.0235
     51 H          10.5266    0.3437    1.9055 H       1  UNL1        0.0235
     52 H          10.2239   -0.9626    0.7748 H       1  UNL1        0.0235
     53 H           9.0191   -0.2940    4.2314 H       1  UNL1        0.0313
     54 H           7.1735    1.0802    5.0783 H       1  UNL1        0.0269
     55 H           6.3328    1.0464    3.5426 H       1  UNL1        0.0269
     56 H           7.9633    2.6657    2.6646 H       1  UNL1        0.0301
     57 H           8.8150    2.6858    4.2182 H       1  UNL1        0.0301
     58 H           7.3252    4.6091    3.9185 H       1  UNL1        0.0734
     59 H           6.5687    4.9187    5.9685 H       1  UNL1        0.0326
     60 H           7.4380    3.4689    6.3513 H       1  UNL1        0.0326
     61 H           5.2923    2.1740    6.1496 H       1  UNL1        0.0600
     62 H           4.2365    3.2706    7.8845 H       1  UNL1        0.2098
     63 H           3.8288    4.8159    5.7828 H       1  UNL1        0.0403
     64 H           3.2560    3.1725    5.5370 H       1  UNL1        0.0403
     65 H           6.0786   -1.0382    3.8713 H       1  UNL1        0.0388
@<TRIPOS>BOND
     1     1     2    1
     2     2     3    1
     3     3     4    1
     4     3     5    1
     5     5     6    2
     6     5     7    1
     7     7     8    1
     8     8     9    1
     9     9    10    1
    10    10    11    1
    11    10    12    1
    12    12    13    2
    13    13    14    1
    14    14    15    2
    15    15    16    1
    16    16    17    1
    17    16    18    1
    18    18    19    1
    19    19    20    1
    20    20    21    1
    21    21    22    1
    22    22    23    1
    23    23    24    1
    24    23    25    1
    25    25    26    1
    26    26    27    2
    27    26    28    1
    28    21    28    1
    29    18    29    1
    30    13    29    1
    31     8    29    1
    32     1    30    1
    33     1    31    1
    34     1    32    1
    35     2    33    1
    36     2    34    1
    37     3    35    1
    38     4    36    1
    39     4    37    1
    40     4    38    1
    41     8    39    1
    42     9    40    1
    43     9    41    1
    44    10    42    1
    45    11    43    1
    46    11    44    1
    47    11    45    1
    48    12    46    1
    49    14    47    1
    50    15    48    1
    51    16    49    1
    52    17    50    1
    53    17    51    1
    54    17    52    1
    55    18    53    1
    56    19    54    1
    57    19    55    1
    58    20    56    1
    59    20    57    1
    60    21    58    1
    61    22    59    1
    62    22    60    1
    63    23    61    1
    64    24    62    1
    65    25    63    1
    66    25    64    1
    67    29    65    1
