@<TRIPOS>MOLECULE
*****
   32    36     1     0     0
SMALL
bcc


@<TRIPOS>ATOM
      1 C            4.8070    -0.1470    -0.0010 ca         1 UNL      -0.127000
      2 C1           4.4280     1.1850    -0.0020 ca         1 UNL      -0.126000
      3 C2           3.0720     1.5190    -0.0020 ca         1 UNL      -0.119000
      4 C3           2.0480     0.5370    -0.0010 ca         1 UNL      -0.016000
      5 C4           2.4610    -0.8170    -0.0000 ca         1 UNL      -0.035000
      6 C5           3.8300    -1.1400    -0.0000 ca         1 UNL      -0.117000
      7 C6           1.5030    -1.8390     0.0010 ca         1 UNL      -0.104000
      8 C7           0.1310    -1.5580     0.0010 ca         1 UNL      -0.031000
      9 C8          -0.8130    -2.5960     0.0010 ca         1 UNL      -0.115000
     10 C9          -2.1810    -2.3210     0.0020 ca         1 UNL      -0.114000
     11 C10         -2.6400    -0.9990     0.0020 ca         1 UNL      -0.033000
     12 C11         -4.0130    -0.7070     0.0010 ca         1 UNL      -0.114000
     13 C12         -4.4590     0.6140     0.0000 ca         1 UNL      -0.127000
     14 C13         -3.5390     1.6580    -0.0000 ca         1 UNL      -0.114000
     15 C14         -2.1630     1.3930     0.0000 ca         1 UNL      -0.034000
     16 C15         -1.2360     2.4330    -0.0000 ca         1 UNL      -0.116000
     17 C16          0.1330     2.1610    -0.0010 ca         1 UNL      -0.116000
     18 C17          0.6440     0.8430    -0.0000 ca         1 UNL      -0.017000
     19 C18         -0.3030    -0.2150     0.0010 ca         1 UNL      -0.012000
     20 C19         -1.7000     0.0590     0.0010 ca         1 UNL      -0.015000
     21 H            5.8600    -0.4140    -0.0010 ha         1 UNL       0.134000
     22 H1           5.1780     1.9710    -0.0020 ha         1 UNL       0.133000
     23 H2           2.8300     2.5780    -0.0020 ha         1 UNL       0.132000
     24 H3           4.1500    -2.1800     0.0000 ha         1 UNL       0.133000
     25 H4           1.8320    -2.8770     0.0010 ha         1 UNL       0.135000
     26 H5          -0.4910    -3.6350     0.0010 ha         1 UNL       0.133000
     27 H6          -2.8850    -3.1500     0.0020 ha         1 UNL       0.133000
     28 H7          -4.7470    -1.5080     0.0020 ha         1 UNL       0.134000
     29 H8          -5.5240     0.8300    -0.0000 ha         1 UNL       0.133000
     30 H9          -3.9020     2.6830    -0.0010 ha         1 UNL       0.134000
     31 H10         -1.5650     3.4700    -0.0010 ha         1 UNL       0.134000
     32 H11          0.7980     3.0200    -0.0010 ha         1 UNL       0.133000
@<TRIPOS>BOND
     1     1     2 ar  
     2     2     3 ar  
     3     3     4 ar  
     4     4     5 ar  
     5     5     6 ar  
     6     1     6 ar  
     7     5     7 ar  
     8     7     8 ar  
     9     8     9 ar  
    10     9    10 ar  
    11    10    11 ar  
    12    11    12 ar  
    13    12    13 ar  
    14    13    14 ar  
    15    14    15 ar  
    16    15    16 ar  
    17    16    17 ar  
    18    17    18 ar  
    19     4    18 ar  
    20    18    19 ar  
    21     8    19 ar  
    22    19    20 ar  
    23    11    20 ar  
    24    15    20 ar  
    25     1    21 1   
    26     2    22 1   
    27     3    23 1   
    28     6    24 1   
    29     7    25 1   
    30     9    26 1   
    31    10    27 1   
    32    12    28 1   
    33    13    29 1   
    34    14    30 1   
    35    16    31 1   
    36    17    32 1   
@<TRIPOS>SUBSTRUCTURE
     1 UNL         1 TEMP              0 ****  ****    0 ROOT
