@<TRIPOS>MOLECULE
*****
   28    29     1     0     0
SMALL
bcc


@<TRIPOS>ATOM
      1 O            2.0020     0.1980     1.4550 o          1 UNL      -0.536100
      2 C            2.2840     0.0110     0.2710 c          1 UNL       0.557700
      3 C1           1.8200    -1.2290    -0.4090 ca         1 UNL      -0.170600
      4 C2           0.6320    -1.8260     0.0340 ca         1 UNL      -0.080500
      5 C3           0.1150    -2.9370    -0.6330 ca         1 UNL      -0.144000
      6 C4           0.7870    -3.4630    -1.7350 ca         1 UNL      -0.099000
      7 C5           1.9870    -2.8910    -2.1610 ca         1 UNL      -0.144000
      8 C6           2.5070    -1.7760    -1.5000 ca         1 UNL      -0.080500
      9 C7           3.0170     1.0680    -0.5600 c3         1 UNL       0.100400
     10 O1           2.6600     2.3670    -0.0790 oh         1 UNL      -0.577800
     11 C8           4.5270     0.9890    -0.5300 ca         1 UNL      -0.123300
     12 C9           5.2560     1.4540    -1.6390 ca         1 UNL      -0.114500
     13 C10          6.6510     1.5000    -1.6110 ca         1 UNL      -0.128500
     14 C11          7.3390     1.0840    -0.4740 ca         1 UNL      -0.120000
     15 C12          6.6320     0.6120     0.6300 ca         1 UNL      -0.128500
     16 C13          5.2360     0.5660     0.6050 ca         1 UNL      -0.114500
     17 H            0.0960    -1.4140     0.8860 ha         1 UNL       0.147000
     18 H1          -0.8170    -3.3860    -0.2990 ha         1 UNL       0.138000
     19 H2           0.3780    -4.3210    -2.2630 ha         1 UNL       0.136000
     20 H3           2.5150    -3.3130    -3.0120 ha         1 UNL       0.138000
     21 H4           3.4480    -1.3600    -1.8470 ha         1 UNL       0.147000
     22 H5           2.6520     1.0130    -1.5930 h1         1 UNL       0.096700
     23 H6           2.6480     2.2870     0.8940 ho         1 UNL       0.417000
     24 H7           4.7350     1.8180    -2.5230 ha         1 UNL       0.139000
     25 H8           7.1990     1.8850    -2.4680 ha         1 UNL       0.135000
     26 H9           8.4230     1.1450    -0.4410 ha         1 UNL       0.134000
     27 H10          7.1680     0.2990     1.5220 ha         1 UNL       0.135000
     28 H11          4.7130     0.2230     1.4960 ha         1 UNL       0.139000
@<TRIPOS>BOND
     1     1     2 2   
     2     2     3 1   
     3     3     4 ar  
     4     4     5 ar  
     5     5     6 ar  
     6     6     7 ar  
     7     7     8 ar  
     8     3     8 ar  
     9     2     9 1   
    10     9    10 1   
    11     9    11 1   
    12    11    12 ar  
    13    12    13 ar  
    14    13    14 ar  
    15    14    15 ar  
    16    15    16 ar  
    17    11    16 ar  
    18     4    17 1   
    19     5    18 1   
    20     6    19 1   
    21     7    20 1   
    22     8    21 1   
    23     9    22 1   
    24    10    23 1   
    25    12    24 1   
    26    13    25 1   
    27    14    26 1   
    28    15    27 1   
    29    16    28 1   
@<TRIPOS>SUBSTRUCTURE
     1 UNL         1 TEMP              0 ****  ****    0 ROOT
