@<TRIPOS>MOLECULE
*****
 32 34 0 0 0
SMALL
GASTEIGER

@<TRIPOS>ATOM
      1 C           1.4626   -0.3028    0.0427 C.ar    1  UNL1       -0.0617
      2 C           0.5518   -1.2270    0.5453 C.ar    1  UNL1       -0.0612
      3 C          -0.8223   -0.9699    0.4776 C.ar    1  UNL1       -0.0540
      4 C          -1.3191    0.2210   -0.0808 C.ar    1  UNL1       -0.0179
      5 C          -2.7738    0.4922   -0.1831 C.ar    1  UNL1       -0.0178
      6 C          -3.7010   -0.0016    0.7471 C.ar    1  UNL1       -0.0535
      7 C          -5.0773    0.2592    0.6267 C.ar    1  UNL1       -0.0535
      8 C          -5.5877    1.0509   -0.4165 C.ar    1  UNL1       -0.0178
      9 C          -7.0334    1.3565   -0.5486 C.ar    1  UNL1       -0.0179
     10 C          -7.8773    1.4680    0.5710 C.ar    1  UNL1       -0.0540
     11 C          -9.2317    1.7939    0.4349 C.ar    1  UNL1       -0.0612
     12 C          -9.7735    2.0270   -0.8261 C.ar    1  UNL1       -0.0617
     13 C          -8.9653    1.9182   -1.9508 C.ar    1  UNL1       -0.0612
     14 C          -7.6174    1.5748   -1.8125 C.ar    1  UNL1       -0.0540
     15 C          -4.6566    1.5527   -1.3341 C.ar    1  UNL1       -0.0535
     16 C          -3.2905    1.2651   -1.2336 C.ar    1  UNL1       -0.0535
     17 C          -0.3696    1.1453   -0.5609 C.ar    1  UNL1       -0.0540
     18 C           1.0027    0.8849   -0.5116 C.ar    1  UNL1       -0.0612
     19 H           2.5284   -0.5077    0.0838 H       1  UNL1        0.0618
     20 H           0.9072   -2.1562    0.9830 H       1  UNL1        0.0618
     21 H          -1.5013   -1.7302    0.8551 H       1  UNL1        0.0624
     22 H          -3.3691   -0.5970    1.5951 H       1  UNL1        0.0624
     23 H          -5.7433   -0.1777    1.3669 H       1  UNL1        0.0624
     24 H          -7.4871    1.3228    1.5757 H       1  UNL1        0.0624
     25 H          -9.8599    1.8751    1.3186 H       1  UNL1        0.0618
     26 H         -10.8206    2.2947   -0.9304 H       1  UNL1        0.0618
     27 H          -9.3778    2.0989   -2.9401 H       1  UNL1        0.0618
     28 H          -7.0260    1.4781   -2.7193 H       1  UNL1        0.0624
     29 H          -4.9731    2.1937   -2.1541 H       1  UNL1        0.0624
     30 H          -2.6375    1.6598   -2.0076 H       1  UNL1        0.0624
     31 H          -0.6880    2.0968   -0.9822 H       1  UNL1        0.0624
     32 H           1.7045    1.6128   -0.9080 H       1  UNL1        0.0618
@<TRIPOS>BOND
     1     1     2   ar
     2     2     3   ar
     3     3     4   ar
     4     4     5    1
     5     5     6   ar
     6     6     7   ar
     7     7     8   ar
     8     8     9    1
     9     9    10   ar
    10    10    11   ar
    11    11    12   ar
    12    12    13   ar
    13    13    14   ar
    14     9    14   ar
    15     8    15   ar
    16    15    16   ar
    17     5    16   ar
    18     4    17   ar
    19    17    18   ar
    20     1    18   ar
    21     1    19    1
    22     2    20    1
    23     3    21    1
    24     6    22    1
    25     7    23    1
    26    10    24    1
    27    11    25    1
    28    12    26    1
    29    13    27    1
    30    14    28    1
    31    15    29    1
    32    16    30    1
    33    17    31    1
    34    18    32    1
