@<TRIPOS>MOLECULE
*****
   56    58     1     0     0
SMALL
bcc


@<TRIPOS>ATOM
      1 C            1.4130    -1.0680    -2.8090 c3         1 UNL      -0.100600
      2 C1           2.8700    -0.7670    -2.4300 c3         1 UNL      -0.052700
      3 C2           3.6620    -0.4120    -3.6960 c3         1 UNL      -0.100600
      4 C3           3.0490     0.3090    -1.3070 c3         1 UNL      -0.050400
      5 C4           2.6220     1.6880    -1.8140 c          1 UNL       0.647100
      6 O            3.3890     2.6250    -1.9880 o          1 UNL      -0.530000
      7 O1           1.2870     1.7350    -2.0330 os         1 UNL      -0.429900
      8 C5           0.7370     2.9610    -2.5430 c3         1 UNL       0.261500
      9 C6           0.2110     2.7310    -3.9500 c1         1 UNL       0.196700
     10 N           -0.2260     2.5390    -5.1170 n1         1 UNL      -0.341800
     11 C7          -0.3690     3.3960    -1.5940 ca         1 UNL      -0.084300
     12 C8          -1.1660     2.4510    -0.9230 ca         1 UNL      -0.122000
     13 C9          -2.2060     2.8590    -0.0900 ca         1 UNL      -0.108000
     14 C10         -2.4620     4.2150     0.0920 ca         1 UNL      -0.162000
     15 C11         -1.6330     5.1710    -0.5000 ca         1 UNL       0.111100
     16 O2          -1.7710     6.5310    -0.3250 os         1 UNL      -0.248200
     17 C12         -2.2280     7.0260     0.8780 ca         1 UNL       0.097100
     18 C13         -1.9740     6.4380     2.1220 ca         1 UNL      -0.152000
     19 C14         -2.5290     6.9820     3.2820 ca         1 UNL      -0.109500
     20 C15         -3.2820     8.1530     3.2120 ca         1 UNL      -0.144000
     21 C16         -3.4710     8.7860     1.9840 ca         1 UNL      -0.109500
     22 C17         -2.9460     8.2230     0.8190 ca         1 UNL      -0.152000
     23 C18         -0.6180     4.7620    -1.3710 ca         1 UNL      -0.126000
     24 C19          2.4780    -0.0460     0.0760 ca         1 UNL      -0.103300
     25 C20          2.4040    -1.3780     0.5150 ca         1 UNL      -0.092500
     26 C21          1.9120    -1.7100     1.7870 ca         1 UNL      -0.159500
     27 C22          1.5010    -0.7110     2.6600 ca         1 UNL       0.114100
     28 O3           0.9590    -0.9190     3.8980 os         1 UNL      -0.366900
     29 C23          1.4500    -2.0520     4.6050 c3         1 UNL       0.587700
     30 F            0.9540    -1.9850     5.8660 f          1 UNL      -0.229800
     31 F1           0.9480    -3.1860     4.0570 f          1 UNL      -0.229800
     32 C24          1.5870     0.6160     2.2570 ca         1 UNL      -0.159500
     33 C25          2.0890     0.9500     0.9870 ca         1 UNL      -0.092500
     34 H            1.3710    -1.9060    -3.5120 hc         1 UNL       0.044033
     35 H1           0.9300    -0.2250    -3.3090 hc         1 UNL       0.044033
     36 H2           0.8120    -1.3390    -1.9360 hc         1 UNL       0.044033
     37 H3           3.3070    -1.7060    -2.0710 hc         1 UNL       0.058700
     38 H4           3.2540     0.4670    -4.2010 hc         1 UNL       0.044033
     39 H5           3.6320    -1.2480    -4.4040 hc         1 UNL       0.044033
     40 H6           4.7130    -0.2210    -3.4560 hc         1 UNL       0.044033
     41 H7           4.1320     0.3950    -1.1330 hc         1 UNL       0.088700
     42 H8           1.4920     3.7550    -2.5880 h1         1 UNL       0.116700
     43 H9          -0.9880     1.3830    -1.0460 ha         1 UNL       0.149000
     44 H10         -2.8180     2.1180     0.4200 ha         1 UNL       0.141000
     45 H11         -3.3000     4.5110     0.7180 ha         1 UNL       0.153000
     46 H12         -1.3660     5.5430     2.2040 ha         1 UNL       0.149000
     47 H13         -2.3730     6.4900     4.2380 ha         1 UNL       0.137500
     48 H14         -3.7120     8.5760     4.1160 ha         1 UNL       0.136000
     49 H15         -4.0340     9.7140     1.9330 ha         1 UNL       0.137500
     50 H16         -3.1030     8.7160    -0.1370 ha         1 UNL       0.149000
     51 H17         -0.0180     5.5230    -1.8690 ha         1 UNL       0.157000
     52 H18          2.7180    -2.2030    -0.1200 ha         1 UNL       0.150000
     53 H19          1.8380    -2.7640     2.0400 ha         1 UNL       0.152500
     54 H20          2.5440    -2.0890     4.6530 h3         1 UNL       0.099700
     55 H21          1.2690     1.4110     2.9300 ha         1 UNL       0.152500
     56 H22          2.1670     2.0080     0.7440 ha         1 UNL       0.150000
@<TRIPOS>BOND
     1     1     2 1   
     2     2     3 1   
     3     2     4 1   
     4     4     5 1   
     5     5     6 2   
     6     5     7 1   
     7     7     8 1   
     8     8     9 1   
     9     9    10 3   
    10     8    11 1   
    11    11    12 ar  
    12    12    13 ar  
    13    13    14 ar  
    14    14    15 ar  
    15    15    16 1   
    16    16    17 1   
    17    17    18 ar  
    18    18    19 ar  
    19    19    20 ar  
    20    20    21 ar  
    21    21    22 ar  
    22    17    22 ar  
    23    15    23 ar  
    24    11    23 ar  
    25     4    24 1   
    26    24    25 ar  
    27    25    26 ar  
    28    26    27 ar  
    29    27    28 1   
    30    28    29 1   
    31    29    30 1   
    32    29    31 1   
    33    27    32 ar  
    34    32    33 ar  
    35    24    33 ar  
    36     1    34 1   
    37     1    35 1   
    38     1    36 1   
    39     2    37 1   
    40     3    38 1   
    41     3    39 1   
    42     3    40 1   
    43     4    41 1   
    44     8    42 1   
    45    12    43 1   
    46    13    44 1   
    47    14    45 1   
    48    18    46 1   
    49    19    47 1   
    50    20    48 1   
    51    21    49 1   
    52    22    50 1   
    53    23    51 1   
    54    25    52 1   
    55    26    53 1   
    56    29    54 1   
    57    32    55 1   
    58    33    56 1   
@<TRIPOS>SUBSTRUCTURE
     1 UNL         1 TEMP              0 ****  ****    0 ROOT
