@<TRIPOS>MOLECULE
*****
   33    34     1     0     0
SMALL
bcc


@<TRIPOS>ATOM
      1 C            2.5430     0.3500     2.0480 c3         1 UNL       0.072300
      2 N            3.3970     0.1340     0.9040 n          1 UNL      -0.438800
      3 C1           3.0510    -0.7700    -0.1630 c3         1 UNL       0.020000
      4 C2           3.9460    -0.3390    -1.3280 c3         1 UNL       0.260500
      5 O            3.1420    -0.0850    -2.4700 oh         1 UNL      -0.584800
      6 N1           4.5690     0.8800    -0.8870 n          1 UNL      -0.423300
      7 C3           5.3040     1.8070    -1.5980 cc         1 UNL       0.410300
      8 N2           5.7010     2.9920    -1.1910 nd         1 UNL      -0.341000
      9 N3           6.2550     3.7440    -2.1990 nd         1 UNL      -0.309000
     10 C4           6.2960     3.1000    -3.3480 cc         1 UNL       0.339700
     11 C5           6.7890     3.7050    -4.6500 c3         1 UNL      -0.078300
     12 C6           7.1030     5.2020    -4.4400 c3         1 UNL      -0.091433
     13 C7           8.0770     3.0030    -5.1130 c3         1 UNL      -0.091433
     14 C8           5.7130     3.6030    -5.7470 c3         1 UNL      -0.091433
     15 S            5.7180     1.4780    -3.2280 ss         1 UNL      -0.065800
     16 C9           4.2650     1.1420     0.4590 c          1 UNL       0.762500
     17 O1           4.6060     2.0760     1.1600 o          1 UNL      -0.587500
     18 H            1.8230    -0.4650     2.1430 h1         1 UNL       0.051367
     19 H1           2.0150     1.3000     1.9210 h1         1 UNL       0.051367
     20 H2           3.1620     0.4100     2.9470 h1         1 UNL       0.051367
     21 H3           1.9860    -0.6610    -0.3990 h1         1 UNL       0.067200
     22 H4           3.2490    -1.7960     0.1590 h1         1 UNL       0.067200
     23 H5           4.7040    -1.0940    -1.5630 h2         1 UNL       0.114700
     24 H6           2.7270     0.7840    -2.3140 ho         1 UNL       0.424000
     25 H7           7.8770     5.3480    -3.6770 hc         1 UNL       0.045811
     26 H8           6.2120     5.7540    -4.1130 hc         1 UNL       0.045811
     27 H9           7.4590     5.6690    -5.3650 hc         1 UNL       0.045811
     28 H10          8.8550     3.0540    -4.3420 hc         1 UNL       0.045811
     29 H11          8.4750     3.4650    -6.0220 hc         1 UNL       0.045811
     30 H12          7.9050     1.9430    -5.3350 hc         1 UNL       0.045811
     31 H13          4.7770     4.0750    -5.4290 hc         1 UNL       0.045811
     32 H14          5.4860     2.5620    -6.0040 hc         1 UNL       0.045811
     33 H15          6.0400     4.0980    -6.6690 hc         1 UNL       0.045811
@<TRIPOS>BOND
     1     1     2 1   
     2     2     3 1   
     3     3     4 1   
     4     4     5 1   
     5     4     6 1   
     6     6     7 1   
     7     7     8 2   
     8     8     9 1   
     9     9    10 2   
    10    10    11 1   
    11    11    12 1   
    12    11    13 1   
    13    11    14 1   
    14    10    15 1   
    15     7    15 1   
    16     6    16 1   
    17     2    16 1   
    18    16    17 2   
    19     1    18 1   
    20     1    19 1   
    21     1    20 1   
    22     3    21 1   
    23     3    22 1   
    24     4    23 1   
    25     5    24 1   
    26    12    25 1   
    27    12    26 1   
    28    12    27 1   
    29    13    28 1   
    30    13    29 1   
    31    13    30 1   
    32    14    31 1   
    33    14    32 1   
    34    14    33 1   
@<TRIPOS>SUBSTRUCTURE
     1 UNL         1 TEMP              0 ****  ****    0 ROOT
