@<TRIPOS>MOLECULE
*****
 56 58 0 0 0
SMALL
GASTEIGER

@<TRIPOS>ATOM
      1 C           0.5965    1.2972   -1.5602 C.3     1  UNL1       -0.0307
      2 C           2.0046    1.7638   -1.8778 C.3     1  UNL1        0.0868
      3 O           2.9226    1.0579   -1.0414 O.3     1  UNL1       -0.4922
      4 C           4.2461    1.3613   -1.2118 C.ar    1  UNL1        0.1205
      5 C           4.7531    2.2865   -2.1175 C.ar    1  UNL1       -0.0197
      6 C           6.1301    2.5124   -2.2130 C.ar    1  UNL1       -0.0545
      7 C           7.0474    1.8213   -1.4023 C.ar    1  UNL1       -0.0393
      8 C           8.5666    2.0523   -1.5084 C.3     1  UNL1        0.0135
      9 C           8.9475    3.0961   -2.5899 C.3     1  UNL1       -0.0537
     10 C           9.1058    2.5862   -0.1626 C.3     1  UNL1       -0.0537
     11 C           9.2710    0.7121   -1.8632 C.3     1  UNL1        0.0572
     12 O          10.6816    0.9089   -1.9810 O.3     1  UNL1       -0.3743
     13 C          11.3664   -0.2983   -2.2978 C.3     1  UNL1        0.0728
     14 C          12.8372    0.0043   -2.4083 C.ar    1  UNL1       -0.0185
     15 C          13.3007    0.9119   -3.3728 C.ar    1  UNL1       -0.0562
     16 C          14.6654    1.1539   -3.5205 C.ar    1  UNL1       -0.0580
     17 C          15.5812    0.5026   -2.6954 C.ar    1  UNL1       -0.0193
     18 C          15.1288   -0.3354   -1.6718 C.ar    1  UNL1        0.1288
     19 O          15.9513   -0.9693   -0.7652 O.3     1  UNL1       -0.4560
     20 C          17.1045   -0.3466   -0.3393 C.ar    1  UNL1        0.1284
     21 C          17.2547    1.0351   -0.2016 C.ar    1  UNL1       -0.0193
     22 C          18.4873    1.5737    0.1708 C.ar    1  UNL1       -0.0583
     23 C          19.5531    0.7306    0.4757 C.ar    1  UNL1       -0.0615
     24 C          19.3816   -0.6539    0.4204 C.ar    1  UNL1       -0.0583
     25 C          18.1609   -1.1905    0.0156 C.ar    1  UNL1       -0.0193
     26 C          13.7643   -0.6130   -1.5578 C.ar    1  UNL1       -0.0140
     27 C           6.5165    0.8986   -0.4831 C.ar    1  UNL1       -0.0545
     28 C           5.1363    0.6693   -0.3926 C.ar    1  UNL1       -0.0197
     29 H          -0.1303    1.8095   -2.1972 H       1  UNL1        0.0262
     30 H           0.3515    1.4978   -0.5125 H       1  UNL1        0.0262
     31 H           0.5033    0.2175   -1.7136 H       1  UNL1        0.0262
     32 H           2.0707    2.8411   -1.6868 H       1  UNL1        0.0694
     33 H           2.2149    1.5539   -2.9332 H       1  UNL1        0.0694
     34 H           4.1097    2.8588   -2.7770 H       1  UNL1        0.0654
     35 H           6.4557    3.2484   -2.9391 H       1  UNL1        0.0622
     36 H           8.4937    4.0726   -2.3825 H       1  UNL1        0.0239
     37 H           8.6235    2.7742   -3.5861 H       1  UNL1        0.0239
     38 H          10.0306    3.2576   -2.6391 H       1  UNL1        0.0239
     39 H           8.6128    3.5252    0.1148 H       1  UNL1        0.0239
     40 H          10.1830    2.7823   -0.2120 H       1  UNL1        0.0239
     41 H           8.9447    1.8758    0.6556 H       1  UNL1        0.0239
     42 H           8.8823    0.3222   -2.8127 H       1  UNL1        0.0568
     43 H           9.0907   -0.0429   -1.0883 H       1  UNL1        0.0568
     44 H          11.0066   -0.7001   -3.2524 H       1  UNL1        0.0610
     45 H          11.1807   -1.0421   -1.5142 H       1  UNL1        0.0610
     46 H          12.5913    1.4332   -4.0126 H       1  UNL1        0.0621
     47 H          15.0164    1.8524   -4.2744 H       1  UNL1        0.0619
     48 H          16.6421    0.6813   -2.8439 H       1  UNL1        0.0654
     49 H          16.4280    1.7101   -0.4046 H       1  UNL1        0.0654
     50 H          18.6127    2.6529    0.2198 H       1  UNL1        0.0619
     51 H          20.5128    1.1501    0.7641 H       1  UNL1        0.0618
     52 H          20.2049   -1.3139    0.6881 H       1  UNL1        0.0619
     53 H          18.0323   -2.2695   -0.0334 H       1  UNL1        0.0654
     54 H          13.4286   -1.3068   -0.7901 H       1  UNL1        0.0658
     55 H           7.1697    0.3381    0.1828 H       1  UNL1        0.0622
     56 H           4.7569   -0.0541    0.3245 H       1  UNL1        0.0654
@<TRIPOS>BOND
     1     1     2    1
     2     2     3    1
     3     3     4    1
     4     4     5   ar
     5     5     6   ar
     6     6     7   ar
     7     7     8    1
     8     8     9    1
     9     8    10    1
    10     8    11    1
    11    11    12    1
    12    12    13    1
    13    13    14    1
    14    14    15   ar
    15    15    16   ar
    16    16    17   ar
    17    17    18   ar
    18    18    19    1
    19    19    20    1
    20    20    21   ar
    21    21    22   ar
    22    22    23   ar
    23    23    24   ar
    24    24    25   ar
    25    20    25   ar
    26    18    26   ar
    27    14    26   ar
    28     7    27   ar
    29    27    28   ar
    30     4    28   ar
    31     1    29    1
    32     1    30    1
    33     1    31    1
    34     2    32    1
    35     2    33    1
    36     5    34    1
    37     6    35    1
    38     9    36    1
    39     9    37    1
    40     9    38    1
    41    10    39    1
    42    10    40    1
    43    10    41    1
    44    11    42    1
    45    11    43    1
    46    13    44    1
    47    13    45    1
    48    15    46    1
    49    16    47    1
    50    17    48    1
    51    21    49    1
    52    22    50    1
    53    23    51    1
    54    24    52    1
    55    25    53    1
    56    26    54    1
    57    27    55    1
    58    28    56    1
