@<TRIPOS>MOLECULE
*****
   16    17     1     0     0
SMALL
bcc


@<TRIPOS>ATOM
      1 Cl           0.9580     0.0540     0.0500 cl         1 UNL      -0.030400
      2 C            2.6990     0.0350     0.0530 ca         1 UNL       0.023400
      3 C1           3.3930    -1.1790     0.0540 ca         1 UNL       0.023400
      4 Cl1          2.5250    -2.6880     0.0480 cl         1 UNL      -0.030400
      5 C2           4.7960    -1.1690     0.0590 ca         1 UNL      -0.011900
      6 Cl2          5.6850    -2.6730     0.0680 cl         1 UNL      -0.021400
      7 C3           5.5260     0.0300     0.0600 ca         1 UNL       0.297300
      8 N            6.8840     0.0210     0.0620 nb         1 UNL      -0.605000
      9 C4           7.5330     1.2030     0.0620 ca         1 UNL       0.304900
     10 C5           6.8530     2.3920     0.0610 ca         1 UNL       0.304900
     11 N1           5.5060     2.4340     0.0590 nb         1 UNL      -0.605000
     12 C6           4.8240     1.2590     0.0580 ca         1 UNL       0.297300
     13 C7           3.4200     1.2390     0.0550 ca         1 UNL      -0.011900
     14 Cl3          2.5760     2.7680     0.0540 cl         1 UNL      -0.021400
     15 H            8.6160     1.1580     0.0640 h4         1 UNL       0.043100
     16 H1           7.3640     3.3480     0.0610 h4         1 UNL       0.043100
@<TRIPOS>BOND
     1     1     2 1   
     2     2     3 ar  
     3     3     4 1   
     4     3     5 ar  
     5     5     6 1   
     6     5     7 ar  
     7     7     8 ar  
     8     8     9 ar  
     9     9    10 ar  
    10    10    11 ar  
    11    11    12 ar  
    12     7    12 ar  
    13    12    13 ar  
    14     2    13 ar  
    15    13    14 1   
    16     9    15 1   
    17    10    16 1   
@<TRIPOS>SUBSTRUCTURE
     1 UNL         1 TEMP              0 ****  ****    0 ROOT
