@<TRIPOS>MOLECULE
*****
 38 41 0 0 0
SMALL
GASTEIGER

@<TRIPOS>ATOM
      1 O           3.0373    1.0813   -0.2630 O.2     1  UNL1       -0.2447
      2 C           1.9541    0.5515   -0.0549 C.ar    1  UNL1        0.3446
      3 O           0.8191    1.3419    0.0666 O.2     1  UNL1       -0.4217
      4 C          -0.4694    0.7895    0.0976 C.ar    1  UNL1        0.1426
      5 C          -1.5320    1.6938    0.0659 C.ar    1  UNL1       -0.0185
      6 C          -2.8350    1.2106    0.0447 C.ar    1  UNL1       -0.0582
      7 C          -3.0579   -0.1638    0.0439 C.ar    1  UNL1       -0.0609
      8 C          -1.9796   -1.0568    0.0854 C.ar    1  UNL1       -0.0475
      9 C          -0.6585   -0.5890    0.1276 C.ar    1  UNL1        0.0593
     10 C           0.5403   -1.4338    0.1983 C.ar    1  UNL1        0.1381
     11 O           0.3784   -2.8042    0.3100 O.3     1  UNL1       -0.5055
     12 C           1.7795   -0.9144    0.1076 C.ar    1  UNL1        0.0863
     13 C           3.0198   -1.8123    0.0716 C.3     1  UNL1        0.0198
     14 C           4.0811   -1.5365    1.1614 C.3     1  UNL1       -0.0415
     15 C           5.2854   -0.7302    0.6916 C.3     1  UNL1       -0.0482
     16 C           5.9199   -1.3293   -0.5580 C.3     1  UNL1       -0.0274
     17 C           4.9322   -1.7180   -1.6272 C.ar    1  UNL1       -0.0436
     18 C           5.3958   -1.9142   -2.9392 C.ar    1  UNL1       -0.0583
     19 C           4.5334   -2.3287   -3.9536 C.ar    1  UNL1       -0.0615
     20 C           3.1963   -2.5730   -3.6687 C.ar    1  UNL1       -0.0615
     21 C           2.7289   -2.4033   -2.3691 C.ar    1  UNL1       -0.0577
     22 C           3.5820   -1.9644   -1.3355 C.ar    1  UNL1       -0.0364
     23 H          -1.3413    2.7633    0.0487 H       1  UNL1        0.0654
     24 H          -3.6741    1.9007    0.0203 H       1  UNL1        0.0619
     25 H          -4.0754   -0.5472    0.0119 H       1  UNL1        0.0618
     26 H          -2.2223   -2.1135    0.0767 H       1  UNL1        0.0626
     27 H          -0.5461   -3.0565    0.1864 H       1  UNL1        0.2922
     28 H           2.6901   -2.8310    0.3253 H       1  UNL1        0.0401
     29 H           4.4661   -2.5070    1.5093 H       1  UNL1        0.0274
     30 H           3.6279   -1.0682    2.0434 H       1  UNL1        0.0274
     31 H           6.0341   -0.6924    1.4925 H       1  UNL1        0.0269
     32 H           5.0115    0.3090    0.5051 H       1  UNL1        0.0269
     33 H           6.4872   -2.2259   -0.2793 H       1  UNL1        0.0313
     34 H           6.6349   -0.6026   -0.9631 H       1  UNL1        0.0313
     35 H           6.4438   -1.7462   -3.1767 H       1  UNL1        0.0620
     36 H           4.9060   -2.4700   -4.9639 H       1  UNL1        0.0618
     37 H           2.5178   -2.9018   -4.4511 H       1  UNL1        0.0618
     38 H           1.6841   -2.6258   -2.1639 H       1  UNL1        0.0621
@<TRIPOS>BOND
     1     1     2    2
     2     2     3   ar
     3     3     4   ar
     4     4     5   ar
     5     5     6   ar
     6     6     7   ar
     7     7     8   ar
     8     8     9   ar
     9     4     9   ar
    10     9    10   ar
    11    10    11    1
    12    10    12   ar
    13     2    12   ar
    14    12    13    1
    15    13    14    1
    16    14    15    1
    17    15    16    1
    18    16    17    1
    19    17    18   ar
    20    18    19   ar
    21    19    20   ar
    22    20    21   ar
    23    21    22   ar
    24    17    22   ar
    25    13    22    1
    26     5    23    1
    27     6    24    1
    28     7    25    1
    29     8    26    1
    30    11    27    1
    31    13    28    1
    32    14    29    1
    33    14    30    1
    34    15    31    1
    35    15    32    1
    36    16    33    1
    37    16    34    1
    38    18    35    1
    39    19    36    1
    40    20    37    1
    41    21    38    1
