@<TRIPOS>MOLECULE
*****
 36 38 0 0 0
SMALL
GASTEIGER

@<TRIPOS>ATOM
      1 C           0.3867   -3.3049   -0.2331 C.3     1  UNL1       -0.0360
      2 C           0.8932   -1.9036    0.0734 C.2     1  UNL1       -0.0003
      3 C           2.1918   -1.5985    0.3300 C.2     1  UNL1       -0.0131
      4 C           2.7837   -0.2785   -0.1326 C.3     1  UNL1        0.1291
      5 O           1.9553    0.4023   -1.0753 O.3     1  UNL1       -0.4564
      6 C           1.6658    1.6554   -0.6356 C.2     1  UNL1        0.3109
      7 O           1.0749    2.4930   -1.3188 O.2     1  UNL1       -0.2505
      8 C           2.1254    1.8830    0.7705 C.3     1  UNL1        0.0601
      9 C           0.9105    2.0003    1.6810 C.3     1  UNL1       -0.0519
     10 C           3.1083    0.7340    0.9634 C.3     1  UNL1        0.0128
     11 C           3.2849    0.1452    2.3567 C.3     1  UNL1       -0.0447
     12 C           3.8765   -1.2651    2.2475 C.3     1  UNL1       -0.0399
     13 C           2.9060   -2.2549    1.5294 C.3     1  UNL1        0.0114
     14 C           3.7337   -3.4695    1.0679 C.3     1  UNL1       -0.0522
     15 C           1.8629   -2.6031    2.5993 C.2     1  UNL1       -0.0704
     16 C           0.6233   -2.0791    2.5744 C.2     1  UNL1       -0.0178
     17 C           0.1254   -1.4814    1.3034 C.2     1  UNL1        0.1817
     18 O          -0.8955   -0.8138    1.2470 O.2     1  UNL1       -0.2876
     19 H          -0.6958   -3.3750   -0.0624 H       1  UNL1        0.0279
     20 H           0.5622   -3.5563   -1.2822 H       1  UNL1        0.0279
     21 H           0.8570   -4.0716    0.3897 H       1  UNL1        0.0279
     22 H           3.7075   -0.5270   -0.6699 H       1  UNL1        0.0785
     23 H           2.6854    2.8235    0.8123 H       1  UNL1        0.0415
     24 H           0.1137    1.3150    1.3989 H       1  UNL1        0.0238
     25 H           0.4758    3.0044    1.5884 H       1  UNL1        0.0238
     26 H           1.1476    1.8588    2.7373 H       1  UNL1        0.0238
     27 H           4.0931    1.1444    0.6946 H       1  UNL1        0.0348
     28 H           2.3483    0.1026    2.9190 H       1  UNL1        0.0270
     29 H           3.9599    0.7790    2.9467 H       1  UNL1        0.0270
     30 H           4.1190   -1.6371    3.2535 H       1  UNL1        0.0277
     31 H           4.8349   -1.2051    1.7148 H       1  UNL1        0.0277
     32 H           4.6217   -3.1458    0.5034 H       1  UNL1        0.0241
     33 H           3.1762   -4.1453    0.4112 H       1  UNL1        0.0241
     34 H           4.0892   -4.0561    1.9239 H       1  UNL1        0.0241
     35 H           2.1916   -3.1604    3.4723 H       1  UNL1        0.0582
     36 H          -0.0650   -2.0989    3.4068 H       1  UNL1        0.0653
@<TRIPOS>BOND
     1     1     2    1
     2     2     3    2
     3     3     4    1
     4     4     5    1
     5     5     6    1
     6     6     7    2
     7     6     8    1
     8     8     9    1
     9     8    10    1
    10     4    10    1
    11    10    11    1
    12    11    12    1
    13    12    13    1
    14     3    13    1
    15    13    14    1
    16    13    15    1
    17    15    16    2
    18    16    17    1
    19     2    17    1
    20    17    18    2
    21     1    19    1
    22     1    20    1
    23     1    21    1
    24     4    22    1
    25     8    23    1
    26     9    24    1
    27     9    25    1
    28     9    26    1
    29    10    27    1
    30    11    28    1
    31    11    29    1
    32    12    30    1
    33    12    31    1
    34    14    32    1
    35    14    33    1
    36    14    34    1
    37    15    35    1
    38    16    36    1
