@<TRIPOS>MOLECULE
*****
 35 37 0 0 0
SMALL
GASTEIGER

@<TRIPOS>ATOM
      1 O           1.0843   -0.0012    0.0685 O.3     1  UNL1       -0.3773
      2 C           2.5346    0.0113    0.0359 C.3     1  UNL1        0.1379
      3 C           2.8893    0.8950   -1.1991 C.3     1  UNL1        0.0804
      4 N           2.4855    0.4040   -2.5064 N.ar    1  UNL1       -0.2486
      5 C           1.6689   -0.6266   -2.8582 C.ar    1  UNL1        0.1144
      6 N           1.5881   -0.7064   -4.1667 N.ar    1  UNL1       -0.2228
      7 C           2.3707    0.3275   -4.5837 C.ar    1  UNL1        0.1379
      8 N           2.9310    1.0477   -3.6089 N.ar    1  UNL1       -0.1583
      9 C           3.0022    0.6360    1.3729 C.ar    1  UNL1       -0.0097
     10 C           2.2025    0.5234    2.5343 C.ar    1  UNL1       -0.0528
     11 C           2.6221    1.0458    3.7608 C.ar    1  UNL1       -0.0261
     12 C           3.8572    1.6680    3.8491 C.ar    1  UNL1        0.1234
     13 F           4.2665    2.1595    5.0261 F       1  UNL1       -0.2055
     14 C           4.6796    1.7723    2.7348 C.ar    1  UNL1       -0.0261
     15 C           4.2601    1.2549    1.5067 C.ar    1  UNL1       -0.0528
     16 C           3.0280   -1.4358   -0.0418 C.ar    1  UNL1        0.0252
     17 C           2.2610   -2.4903    0.4914 C.ar    1  UNL1       -0.0527
     18 C           2.7035   -3.8144    0.4218 C.ar    1  UNL1       -0.0612
     19 C           3.9220   -4.1149   -0.1810 C.ar    1  UNL1       -0.0590
     20 C           4.7026   -3.0888   -0.7026 C.ar    1  UNL1       -0.0261
     21 C           4.2624   -1.7699   -0.6165 C.ar    1  UNL1        0.1297
     22 F           5.0627   -0.8151   -1.1079 F       1  UNL1       -0.2051
     23 H           0.7915    0.8865    0.3426 H       1  UNL1        0.2112
     24 H           3.9634    1.0920   -1.2755 H       1  UNL1        0.0545
     25 H           2.3986    1.8733   -1.1002 H       1  UNL1        0.0545
     26 H           1.1682   -1.2804   -2.1580 H       1  UNL1        0.1044
     27 H           2.5328    0.5643   -5.6273 H       1  UNL1        0.1065
     28 H           1.2435    0.0079    2.5011 H       1  UNL1        0.0622
     29 H           2.0008    0.9538    4.6453 H       1  UNL1        0.0646
     30 H           5.6535    2.2441    2.8364 H       1  UNL1        0.0646
     31 H           4.9504    1.3236    0.6676 H       1  UNL1        0.0622
     32 H           1.3003   -2.2875    0.9622 H       1  UNL1        0.0622
     33 H           2.0913   -4.6123    0.8361 H       1  UNL1        0.0618
     34 H           4.2631   -5.1450   -0.2415 H       1  UNL1        0.0618
     35 H           5.6547   -3.3048   -1.1783 H       1  UNL1        0.0646
@<TRIPOS>BOND
     1     1     2    1
     2     2     3    1
     3     3     4    1
     4     4     5   ar
     5     5     6   ar
     6     6     7   ar
     7     7     8   ar
     8     4     8   ar
     9     2     9    1
    10     9    10   ar
    11    10    11   ar
    12    11    12   ar
    13    12    13    1
    14    12    14   ar
    15    14    15   ar
    16     9    15   ar
    17     2    16    1
    18    16    17   ar
    19    17    18   ar
    20    18    19   ar
    21    19    20   ar
    22    20    21   ar
    23    16    21   ar
    24    21    22    1
    25     1    23    1
    26     3    24    1
    27     3    25    1
    28     5    26    1
    29     7    27    1
    30    10    28    1
    31    11    29    1
    32    14    30    1
    33    15    31    1
    34    17    32    1
    35    18    33    1
    36    19    34    1
    37    20    35    1
