@<TRIPOS>MOLECULE
*****
   32    36     1     0     0
SMALL
bcc


@<TRIPOS>ATOM
      1 C            4.9960    -0.7390     0.0030 ca         1 UNL      -0.127000
      2 C1           5.0150     0.6520     0.0080 ca         1 UNL      -0.127000
      3 C2           3.8170     1.3710     0.0060 ca         1 UNL      -0.117000
      4 C3           2.5790     0.7100     0.0010 ca         1 UNL      -0.035000
      5 C4           1.3670     1.4310     0.0000 ca         1 UNL      -0.094000
      6 C5           0.1770     0.7260    -0.0020 cp         1 UNL      -0.030000
      7 C6           0.1730    -0.6940    -0.0040 cq         1 UNL      -0.030000
      8 C7           1.3500    -1.4180    -0.0050 ca         1 UNL      -0.094000
      9 C8           2.5650    -0.7190    -0.0030 ca         1 UNL      -0.035000
     10 C9           3.7790    -1.4200    -0.0030 ca         1 UNL      -0.117000
     11 C10         -1.2170    -1.1230    -0.0030 cp         1 UNL      -0.033000
     12 C11         -1.8180    -2.3700    -0.0010 ca         1 UNL      -0.089000
     13 C12         -3.2210    -2.4360     0.0020 ca         1 UNL      -0.134000
     14 C13         -4.0120    -1.2660     0.0030 ca         1 UNL      -0.102000
     15 C14         -3.4030     0.0050     0.0010 ca         1 UNL      -0.031000
     16 C15         -4.0230     1.2680     0.0020 ca         1 UNL      -0.102000
     17 C16         -3.2400     2.4450     0.0000 ca         1 UNL      -0.134000
     18 C17         -1.8330     2.3930    -0.0010 ca         1 UNL      -0.089000
     19 C18         -1.2180     1.1540    -0.0020 cq         1 UNL      -0.033000
     20 C19         -2.0110     0.0120    -0.0010 ca         1 UNL      -0.059000
     21 H            5.9280    -1.2980     0.0030 ha         1 UNL       0.133000
     22 H1           5.9650     1.1800     0.0130 ha         1 UNL       0.133000
     23 H2           3.8600     2.4580     0.0100 ha         1 UNL       0.133000
     24 H3           1.3620     2.5160     0.0030 ha         1 UNL       0.137000
     25 H4           1.3250    -2.5020    -0.0070 ha         1 UNL       0.137000
     26 H5           3.7870    -2.5080    -0.0070 ha         1 UNL       0.133000
     27 H6          -1.2250    -3.2780    -0.0010 ha         1 UNL       0.136000
     28 H7          -3.7080    -3.4090     0.0040 ha         1 UNL       0.132000
     29 H8          -5.0960    -1.3540     0.0060 ha         1 UNL       0.134000
     30 H9          -5.1070     1.3450     0.0030 ha         1 UNL       0.134000
     31 H10         -3.7390     3.4120     0.0000 ha         1 UNL       0.132000
     32 H11         -1.2530     3.3090    -0.0030 ha         1 UNL       0.136000
@<TRIPOS>BOND
     1     1     2 ar  
     2     2     3 ar  
     3     3     4 ar  
     4     4     5 ar  
     5     5     6 ar  
     6     6     7 1   
     7     7     8 2   
     8     8     9 ar  
     9     4     9 ar  
    10     9    10 ar  
    11     1    10 ar  
    12     7    11 1   
    13    11    12 ar  
    14    12    13 ar  
    15    13    14 ar  
    16    14    15 ar  
    17    15    16 ar  
    18    16    17 ar  
    19    17    18 ar  
    20    18    19 2   
    21     6    19 1   
    22    19    20 1   
    23    11    20 ar  
    24    15    20 ar  
    25     1    21 1   
    26     2    22 1   
    27     3    23 1   
    28     5    24 1   
    29     8    25 1   
    30    10    26 1   
    31    12    27 1   
    32    13    28 1   
    33    14    29 1   
    34    16    30 1   
    35    17    31 1   
    36    18    32 1   
@<TRIPOS>SUBSTRUCTURE
     1 UNL         1 TEMP              0 ****  ****    0 ROOT
