@<TRIPOS>MOLECULE
*****
   35    37     1     0     0
SMALL
bcc


@<TRIPOS>ATOM
      1 C            2.4240    -0.6020    -1.3240 c3         1 UNL      -0.132100
      2 C1           2.4790    -0.0670     0.1030 c3         1 UNL       0.211800
      3 N            3.0510    -1.0550     1.0400 na         1 UNL      -0.569400
      4 C2           4.4390    -0.9740     1.2120 ca         1 UNL       0.164600
      5 C3           4.9950     0.1140     1.9080 ca         1 UNL      -0.131000
      6 C4           6.3690     0.1950     2.1520 ca         1 UNL      -0.104000
      7 C5           7.2180    -0.7980     1.6740 ca         1 UNL      -0.147000
      8 C6           6.6850    -1.8740     0.9730 ca         1 UNL      -0.071000
      9 C7           5.3010    -1.9640     0.7640 ca         1 UNL      -0.158600
     10 C8           4.8110    -3.1640     0.0830 c          1 UNL       0.716100
     11 O            5.4160    -3.5370    -0.9230 o          1 UNL      -0.636500
     12 N1           3.9170    -3.9630     0.7860 n          1 UNL      -0.381000
     13 C9           4.2650    -5.3760     0.8030 c3         1 UNL       0.077300
     14 C10          2.6990    -3.5100     1.4150 ca         1 UNL       0.046600
     15 C11          1.8370    -4.4850     1.9730 ca         1 UNL      -0.156000
     16 C12          0.6000    -4.1650     2.5360 ca         1 UNL      -0.112000
     17 C13          0.1800    -2.8490     2.5560 ca         1 UNL      -0.145000
     18 C14          1.0010    -1.8650     2.0110 ca         1 UNL      -0.097000
     19 C15          2.2630    -2.1580     1.4320 ca         1 UNL       0.099600
     20 H            2.0600     0.1740    -2.0020 hc         1 UNL       0.044700
     21 H1           1.7500    -1.4610    -1.4010 hc         1 UNL       0.044700
     22 H2           3.4140    -0.9160    -1.6720 hc         1 UNL       0.044700
     23 H3           1.4720     0.2430     0.4060 h1         1 UNL       0.052200
     24 H4           3.0700     0.8590     0.1010 h1         1 UNL       0.052200
     25 H5           4.3410     0.8860     2.3080 ha         1 UNL       0.146000
     26 H6           6.7690     1.0260     2.7280 ha         1 UNL       0.136000
     27 H7           8.2870    -0.7420     1.8630 ha         1 UNL       0.139000
     28 H8           7.3470    -2.6530     0.5940 ha         1 UNL       0.156000
     29 H9           5.2500    -5.5530     0.3580 h1         1 UNL       0.051033
     30 H10          3.5260    -5.9600     0.2480 h1         1 UNL       0.051033
     31 H11          4.3350    -5.7100     1.8440 h1         1 UNL       0.051033
     32 H12          2.0960    -5.5390     1.9720 ha         1 UNL       0.140000
     33 H13         -0.0250    -4.9470     2.9570 ha         1 UNL       0.136000
     34 H14         -0.7680    -2.5810     3.0130 ha         1 UNL       0.137000
     35 H15          0.6700    -0.8330     2.1010 ha         1 UNL       0.146000
@<TRIPOS>BOND
     1     1     2 1   
     2     2     3 1   
     3     3     4 1   
     4     4     5 ar  
     5     5     6 ar  
     6     6     7 ar  
     7     7     8 ar  
     8     8     9 ar  
     9     4     9 ar  
    10     9    10 1   
    11    10    11 2   
    12    10    12 1   
    13    12    13 1   
    14    12    14 1   
    15    14    15 ar  
    16    15    16 ar  
    17    16    17 ar  
    18    17    18 ar  
    19    18    19 ar  
    20    14    19 ar  
    21     3    19 1   
    22     1    20 1   
    23     1    21 1   
    24     1    22 1   
    25     2    23 1   
    26     2    24 1   
    27     5    25 1   
    28     6    26 1   
    29     7    27 1   
    30     8    28 1   
    31    13    29 1   
    32    13    30 1   
    33    13    31 1   
    34    15    32 1   
    35    16    33 1   
    36    17    34 1   
    37    18    35 1   
@<TRIPOS>SUBSTRUCTURE
     1 UNL         1 TEMP              0 ****  ****    0 ROOT
