@<TRIPOS>MOLECULE
*****
 21 25 0 0 0
SMALL
GASTEIGER

@<TRIPOS>ATOM
      1 O           2.7054    1.4971    1.2445 O.2     1  UNL1       -0.2934
      2 C           2.8952    0.3962    0.7770 C.2     1  UNL1        0.1818
      3 C           2.0437   -0.4587   -0.1333 C.3     1  UNL1        0.1494
      4 CL          0.5206    0.3106   -0.6429 Cl      1  UNL1       -0.1060
      5 C           2.9157   -1.1136   -1.2594 C.3     1  UNL1        0.1190
      6 CL          2.8493   -0.5472   -2.9333 Cl      1  UNL1       -0.1119
      7 C           2.3096   -2.5034   -0.8849 C.3     1  UNL1        0.1249
      8 CL          0.8807   -3.0603   -1.8391 Cl      1  UNL1       -0.1111
      9 C           3.4048   -3.5348   -0.7545 C.3     1  UNL1        0.1630
     10 CL          4.0378   -4.0716   -2.3061 Cl      1  UNL1       -0.0970
     11 CL          2.9023   -4.9390    0.2180 Cl      1  UNL1       -0.0970
     12 C           4.3255   -2.5995    0.0087 C.3     1  UNL1        0.1249
     13 CL          5.9470   -3.3004    0.3476 Cl      1  UNL1       -0.1111
     14 C           4.3473   -1.1412   -0.5324 C.3     1  UNL1        0.1190
     15 CL          5.7349   -0.4188   -1.3596 Cl      1  UNL1       -0.1119
     16 C           4.0089   -0.5970    0.9040 C.3     1  UNL1        0.1494
     17 CL          5.3430   -0.0187    1.9521 Cl      1  UNL1       -0.1060
     18 C           3.4641   -2.0183    1.2002 C.3     1  UNL1        0.1190
     19 CL          3.6202   -2.7275    2.8121 Cl      1  UNL1       -0.1119
     20 C           2.0012   -1.8905    0.5188 C.3     1  UNL1        0.1190
     21 CL          0.5845   -2.3756    1.4503 Cl      1  UNL1       -0.1119
@<TRIPOS>BOND
     1     1     2    2
     2     2     3    1
     3     3     4    1
     4     3     5    1
     5     5     6    1
     6     5     7    1
     7     7     8    1
     8     7     9    1
     9     9    10    1
    10     9    11    1
    11     9    12    1
    12    12    13    1
    13    12    14    1
    14     5    14    1
    15    14    15    1
    16    14    16    1
    17     2    16    1
    18    16    17    1
    19    16    18    1
    20    12    18    1
    21    18    19    1
    22    18    20    1
    23     3    20    1
    24     7    20    1
    25    20    21    1
