@<TRIPOS>MOLECULE
*****
 34 37 0 0 0
SMALL
GASTEIGER

@<TRIPOS>ATOM
      1 C           3.2515    1.9450   -0.9008 C.3     1  UNL1       -0.0378
      2 C           2.7324    0.6152   -0.4306 C.ar    1  UNL1       -0.0244
      3 C           3.5239   -0.5243   -0.5884 C.ar    1  UNL1       -0.0388
      4 C           3.0479   -1.7382   -0.1219 C.ar    1  UNL1        0.0301
      5 N           1.8635   -1.8934    0.5082 N.ar    1  UNL1       -0.2380
      6 C           1.0599   -0.8003    0.6161 C.ar    1  UNL1        0.1485
      7 C           1.4553    0.4703    0.1394 C.ar    1  UNL1        0.0774
      8 N           0.6503    1.6202    0.2816 N.am    1  UNL1       -0.2784
      9 C          -0.7168    1.7367    0.3052 C.2     1  UNL1        0.2517
     10 O          -1.2180    2.8502    0.4618 O.2     1  UNL1       -0.2697
     11 C          -1.5985    0.5969    0.0059 C.ar    1  UNL1        0.0772
     12 C          -2.7505    0.8282   -0.7534 C.ar    1  UNL1       -0.0449
     13 C          -3.6244   -0.2195   -1.0116 C.ar    1  UNL1       -0.0427
     14 C          -3.3347   -1.4529   -0.4590 C.ar    1  UNL1        0.0297
     15 N          -2.2509   -1.6942    0.3131 N.ar    1  UNL1       -0.2392
     16 C          -1.3697   -0.6749    0.5207 C.ar    1  UNL1        0.1390
     17 N          -0.1950   -0.9140    1.2694 N.pl3   1  UNL1       -0.2649
     18 C          -0.3118   -1.7392    2.4751 C.3     1  UNL1        0.0314
     19 C          -1.0401   -1.1468    3.6623 C.3     1  UNL1       -0.0322
     20 C           0.4318   -1.3957    3.7433 C.3     1  UNL1       -0.0322
     21 H           4.2225    1.8479   -1.3969 H       1  UNL1        0.0278
     22 H           3.3795    2.6196   -0.0482 H       1  UNL1        0.0278
     23 H           2.5579    2.3930   -1.6204 H       1  UNL1        0.0278
     24 H           4.4952   -0.4770   -1.0703 H       1  UNL1        0.0636
     25 H           3.6279   -2.6488   -0.2473 H       1  UNL1        0.0830
     26 H           1.1043    2.5240    0.2699 H       1  UNL1        0.1552
     27 H          -2.9573    1.8211   -1.1436 H       1  UNL1        0.0627
     28 H          -4.5098   -0.0733   -1.6197 H       1  UNL1        0.0633
     29 H          -3.9823   -2.3088   -0.6310 H       1  UNL1        0.0830
     30 H          -0.4651   -2.7929    2.2615 H       1  UNL1        0.0505
     31 H          -1.7121   -1.7926    4.2182 H       1  UNL1        0.0284
     32 H          -1.3751   -0.1172    3.5991 H       1  UNL1        0.0284
     33 H           0.7683   -2.2056    4.3777 H       1  UNL1        0.0284
     34 H           1.0960   -0.5382    3.7287 H       1  UNL1        0.0284
@<TRIPOS>BOND
     1     1     2    1
     2     2     3   ar
     3     3     4   ar
     4     4     5   ar
     5     5     6   ar
     6     6     7   ar
     7     2     7   ar
     8     7     8    1
     9     8     9   am
    10     9    10    2
    11     9    11    1
    12    11    12   ar
    13    12    13   ar
    14    13    14   ar
    15    14    15   ar
    16    15    16   ar
    17    11    16   ar
    18    16    17    1
    19     6    17    1
    20    17    18    1
    21    18    19    1
    22    19    20    1
    23    18    20    1
    24     1    21    1
    25     1    22    1
    26     1    23    1
    27     3    24    1
    28     4    25    1
    29     8    26    1
    30    12    27    1
    31    13    28    1
    32    14    29    1
    33    18    30    1
    34    19    31    1
    35    19    32    1
    36    20    33    1
    37    20    34    1
