@<TRIPOS>MOLECULE
*****
 21 23 0 0 0
SMALL
GASTEIGER

@<TRIPOS>ATOM
      1 C          -3.5134    0.1704    0.0454 C.ar    1  UNL1       -0.0607
      2 C          -3.0301    1.4698    0.0284 C.ar    1  UNL1       -0.0611
      3 C          -1.6525    1.7076   -0.0040 C.ar    1  UNL1       -0.0529
      4 C          -0.7279    0.6296   -0.0099 C.ar    1  UNL1       -0.0031
      5 C          -1.2444   -0.6666    0.0059 C.ar    1  UNL1        0.0205
      6 C          -2.6327   -0.9119    0.0294 C.ar    1  UNL1       -0.0474
      7 S           0.0052   -1.8415   -0.0025 S.2     1  UNL1       -0.0882
      8 C           1.2477   -0.6590    0.0040 C.ar    1  UNL1        0.0205
      9 C           2.6369   -0.8969    0.0279 C.ar    1  UNL1       -0.0474
     10 C           3.5116    0.1916    0.0305 C.ar    1  UNL1       -0.0607
     11 C           3.0209    1.4870   -0.0002 C.ar    1  UNL1       -0.0611
     12 C           1.6420    1.7171   -0.0254 C.ar    1  UNL1       -0.0529
     13 C           0.7237    0.6338   -0.0165 C.ar    1  UNL1       -0.0031
     14 H          -4.5852   -0.0097    0.0733 H       1  UNL1        0.0618
     15 H          -3.7222    2.3083    0.0421 H       1  UNL1        0.0618
     16 H          -1.2898    2.7323   -0.0149 H       1  UNL1        0.0624
     17 H          -3.0127   -1.9295    0.0419 H       1  UNL1        0.0629
     18 H           3.0233   -1.9114    0.0490 H       1  UNL1        0.0629
     19 H           4.5851    0.0174    0.0559 H       1  UNL1        0.0618
     20 H           3.7085    2.3301   -0.0000 H       1  UNL1        0.0618
     21 H           1.2736    2.7391   -0.0453 H       1  UNL1        0.0624
@<TRIPOS>BOND
     1     1     2   ar
     2     2     3   ar
     3     3     4   ar
     4     4     5   ar
     5     5     6   ar
     6     1     6   ar
     7     5     7   ar
     8     7     8   ar
     9     8     9   ar
    10     9    10   ar
    11    10    11   ar
    12    11    12   ar
    13    12    13   ar
    14     8    13   ar
    15     4    13   ar
    16     1    14    1
    17     2    15    1
    18     3    16    1
    19     6    17    1
    20     9    18    1
    21    10    19    1
    22    11    20    1
    23    12    21    1
