@<TRIPOS>MOLECULE
*****
   10    10     1     0     0
SMALL
bcc


@<TRIPOS>ATOM
      1 C            1.0160     0.0010     0.0350 c3         1 UNL      -0.092100
      2 C1           2.4990     0.0470     0.1110 cx         1 UNL       0.062100
      3 C2           3.3200     0.7870    -0.9140 cx         1 UNL       0.050400
      4 O            3.1610    -0.6380    -0.9610 op         1 UNL      -0.408600
      5 H            0.5790     0.6150     0.8290 hc         1 UNL       0.049700
      6 H1           0.6610    -1.0260     0.1670 hc         1 UNL       0.049700
      7 H2           0.6410     0.3710    -0.9250 hc         1 UNL       0.049700
      8 H3           2.8880    -0.0930     1.1090 h1         1 UNL       0.087700
      9 H4           4.2880     1.1710    -0.6170 h1         1 UNL       0.076200
     10 H5           2.8170     1.3690    -1.6750 h1         1 UNL       0.076200
@<TRIPOS>BOND
     1     1     2 1   
     2     2     3 1   
     3     3     4 1   
     4     2     4 1   
     5     1     5 1   
     6     1     6 1   
     7     1     7 1   
     8     2     8 1   
     9     3     9 1   
    10     3    10 1   
@<TRIPOS>SUBSTRUCTURE
     1 UNL         1 TEMP              0 ****  ****    0 ROOT
