@<TRIPOS>MOLECULE
*****
   49    49     1     0     0
SMALL
bcc


@<TRIPOS>ATOM
      1 C            1.1710    -0.5590    -0.5950 c3         1 UNL      -0.103100
      2 C1           2.6300    -0.2800    -0.2540 c3         1 UNL      -0.098400
      3 C2           3.1380     0.8920    -1.0700 c3         1 UNL       0.136900
      4 O            4.4810     1.2530    -0.7040 os         1 UNL      -0.479700
      5 P            5.0580     2.6200    -1.5930 p5         1 UNL       0.832200
      6 S            3.9780     3.8420    -0.3520 s          1 UNL      -0.445000
      7 O1           6.5230     2.4830    -0.7770 os         1 UNL      -0.479700
      8 C3           6.9440     1.2780    -0.1690 c3         1 UNL       0.136900
      9 C4           8.1870     1.4640     0.7010 c3         1 UNL      -0.098400
     10 C5           7.9260     2.3540     1.9090 c3         1 UNL      -0.103100
     11 S1           5.7650     4.2960    -2.6830 ss         1 UNL      -0.363500
     12 C6           4.6290     4.7380    -3.9620 c3         1 UNL       0.030700
     13 C7           3.2230     5.1680    -3.5260 c          1 UNL       0.640100
     14 O2           3.0280     5.9210    -2.5920 o          1 UNL      -0.555100
     15 N            2.2000     4.6650    -4.3440 n          1 UNL      -0.442800
     16 C8           2.4760     4.1460    -5.6820 c3         1 UNL       0.064000
     17 C9           1.5610     4.7380    -6.7390 c3         1 UNL      -0.108400
     18 C10          0.1040     4.5670    -6.3530 c3         1 UNL      -0.078400
     19 C11         -0.1610     5.1270    -4.9580 c3         1 UNL      -0.107400
     20 C12          0.7920     4.5360    -3.9030 c3         1 UNL       0.081700
     21 C13          0.4080     5.0640    -2.5220 c3         1 UNL      -0.102100
     22 H            0.7930    -1.4060    -0.0180 hc         1 UNL       0.044700
     23 H1           1.0550    -0.7860    -1.6590 hc         1 UNL       0.044700
     24 H2           0.5440     0.3110    -0.3670 hc         1 UNL       0.044700
     25 H3           3.2460    -1.1650    -0.4440 hc         1 UNL       0.058200
     26 H4           2.7220    -0.0540     0.8140 hc         1 UNL       0.058200
     27 H5           2.4530     1.7270    -0.8880 h1         1 UNL       0.077450
     28 H6           3.1080     0.6820    -2.1440 h1         1 UNL       0.077450
     29 H7           7.1560     0.5720    -0.9780 h1         1 UNL       0.077450
     30 H8           6.1850     0.8530     0.4910 h1         1 UNL       0.077450
     31 H9           9.0060     1.8850     0.1110 hc         1 UNL       0.058200
     32 H10          8.5030     0.4760     1.0600 hc         1 UNL       0.058200
     33 H11          7.6640     3.3720     1.6060 hc         1 UNL       0.044700
     34 H12          8.8230     2.4130     2.5340 hc         1 UNL       0.044700
     35 H13          7.1150     1.9530     2.5270 hc         1 UNL       0.044700
     36 H14          4.6000     3.8320    -4.5640 h1         1 UNL       0.103200
     37 H15          5.0420     5.5580    -4.5600 h1         1 UNL       0.103200
     38 H16          2.3800     3.0570    -5.6210 h1         1 UNL       0.057700
     39 H17          3.4890     4.3810    -6.0180 h1         1 UNL       0.057700
     40 H18          1.7630     4.2470    -7.6970 hc         1 UNL       0.050200
     41 H19          1.7900     5.8030    -6.8620 hc         1 UNL       0.050200
     42 H20         -0.1560     3.5050    -6.3820 hc         1 UNL       0.043700
     43 H21         -0.5260     5.0790    -7.0840 hc         1 UNL       0.043700
     44 H22         -1.2000     4.9110    -4.6860 hc         1 UNL       0.057700
     45 H23         -0.0500     6.2170    -4.9770 hc         1 UNL       0.057700
     46 H24          0.6240     3.4500    -3.8700 h1         1 UNL       0.051700
     47 H25          0.6260     6.1310    -2.4110 hc         1 UNL       0.050700
     48 H26          0.9250     4.5110    -1.7310 hc         1 UNL       0.050700
     49 H27         -0.6650     4.9360    -2.3490 hc         1 UNL       0.050700
@<TRIPOS>BOND
     1     1     2 1   
     2     2     3 1   
     3     3     4 1   
     4     4     5 1   
     5     5     6 2   
     6     5     7 1   
     7     7     8 1   
     8     8     9 1   
     9     9    10 1   
    10     5    11 1   
    11    11    12 1   
    12    12    13 1   
    13    13    14 2   
    14    13    15 1   
    15    15    16 1   
    16    16    17 1   
    17    17    18 1   
    18    18    19 1   
    19    19    20 1   
    20    15    20 1   
    21    20    21 1   
    22     1    22 1   
    23     1    23 1   
    24     1    24 1   
    25     2    25 1   
    26     2    26 1   
    27     3    27 1   
    28     3    28 1   
    29     8    29 1   
    30     8    30 1   
    31     9    31 1   
    32     9    32 1   
    33    10    33 1   
    34    10    34 1   
    35    10    35 1   
    36    12    36 1   
    37    12    37 1   
    38    16    38 1   
    39    16    39 1   
    40    17    40 1   
    41    17    41 1   
    42    18    42 1   
    43    18    43 1   
    44    19    44 1   
    45    19    45 1   
    46    20    46 1   
    47    21    47 1   
    48    21    48 1   
    49    21    49 1   
@<TRIPOS>SUBSTRUCTURE
     1 UNL         1 TEMP              0 ****  ****    0 ROOT
