@<TRIPOS>MOLECULE
*****
 27 28 0 0 0
SMALL
GASTEIGER

@<TRIPOS>ATOM
      1 O           1.1822    0.2444   -0.4847 O.2     1  UNL1       -0.2740
      2 C           2.3138    0.1011   -0.0341 C.2     1  UNL1        0.2358
      3 C           3.0529    1.1417    0.7696 C.3     1  UNL1        0.0517
      4 C           2.7168    2.5589    0.3115 C.3     1  UNL1       -0.0229
      5 C           3.8191    3.3047   -0.3567 C.2     1  UNL1       -0.0872
      6 C           5.0827    2.8782   -0.4249 C.2     1  UNL1       -0.0872
      7 C           5.5733    1.5929    0.1573 C.3     1  UNL1       -0.0229
      8 C           4.5077    0.6633    0.7395 C.3     1  UNL1        0.0517
      9 C           4.4366   -0.6785    0.0260 C.2     1  UNL1        0.2358
     10 O           5.4124   -1.3260   -0.3187 O.2     1  UNL1       -0.2740
     11 N           3.1119   -1.0044   -0.1391 N.am    1  UNL1       -0.1794
     12 S           2.5879   -2.4526   -0.8683 S.3     1  UNL1       -0.0068
     13 C           1.6874   -3.3019    0.5343 C.3     1  UNL1        0.2099
     14 CL          2.7799   -3.3965    1.9703 Cl      1  UNL1       -0.0845
     15 CL          0.2660   -2.2888    1.0205 Cl      1  UNL1       -0.0845
     16 C           1.1772   -4.7075    0.0919 C.3     1  UNL1        0.1510
     17 CL          2.4890   -5.8467   -0.3749 Cl      1  UNL1       -0.1005
     18 CL          0.1814   -5.5467    1.3442 Cl      1  UNL1       -0.1005
     19 H           2.6747    1.0245    1.7965 H       1  UNL1        0.0405
     20 H           2.4145    3.1443    1.1891 H       1  UNL1        0.0315
     21 H           1.8517    2.5686   -0.3612 H       1  UNL1        0.0315
     22 H           3.5612    4.2701   -0.7894 H       1  UNL1        0.0569
     23 H           5.8246    3.5132   -0.9075 H       1  UNL1        0.0569
     24 H           6.2691    1.8623    0.9641 H       1  UNL1        0.0315
     25 H           6.1809    1.0868   -0.6016 H       1  UNL1        0.0315
     26 H           4.8111    0.4168    1.7669 H       1  UNL1        0.0405
     27 H           0.5252   -4.6160   -0.7834 H       1  UNL1        0.0673
@<TRIPOS>BOND
     1     1     2    2
     2     2     3    1
     3     3     4    1
     4     4     5    1
     5     5     6    2
     6     6     7    1
     7     7     8    1
     8     3     8    1
     9     8     9    1
    10     9    10    2
    11     9    11   am
    12     2    11   am
    13    11    12    1
    14    12    13    1
    15    13    14    1
    16    13    15    1
    17    13    16    1
    18    16    17    1
    19    16    18    1
    20     3    19    1
    21     4    20    1
    22     4    21    1
    23     5    22    1
    24     6    23    1
    25     7    24    1
    26     7    25    1
    27     8    26    1
    28    16    27    1
