@<TRIPOS>MOLECULE
*****
 10 10 0 0 0
SMALL
GASTEIGER

@<TRIPOS>ATOM
      1 C           1.0155    0.0007    0.0346 C.3     1  UNL1       -0.0365
      2 C           2.4993    0.0470    0.1108 C.3     1  UNL1        0.0793
      3 C           3.3199    0.7874   -0.9139 C.3     1  UNL1        0.0740
      4 O           3.1613   -0.6378   -0.9614 O.3     1  UNL1       -0.3720
      5 H           0.5792    0.6153    0.8286 H       1  UNL1        0.0255
      6 H           0.6613   -1.0262    0.1668 H       1  UNL1        0.0255
      7 H           0.6411    0.3711   -0.9249 H       1  UNL1        0.0255
      8 H           2.8878   -0.0928    1.1095 H       1  UNL1        0.0616
      9 H           4.2881    1.1705   -0.6173 H       1  UNL1        0.0586
     10 H           2.8165    1.3688   -1.6752 H       1  UNL1        0.0586
@<TRIPOS>BOND
     1     1     2    1
     2     2     3    1
     3     3     4    1
     4     2     4    1
     5     1     5    1
     6     1     6    1
     7     1     7    1
     8     2     8    1
     9     3     9    1
    10     3    10    1
