@<TRIPOS>MOLECULE
*****
   34    37     1     0     0
SMALL
bcc


@<TRIPOS>ATOM
      1 C            3.2520     1.9450    -0.9010 c3         1 UNL      -0.061800
      2 C1           2.7320     0.6150    -0.4310 ca         1 UNL      -0.069300
      3 C2           3.5240    -0.5240    -0.5880 ca         1 UNL      -0.234300
      4 C3           3.0480    -1.7380    -0.1220 ca         1 UNL       0.395200
      5 N            1.8630    -1.8930     0.5080 nb         1 UNL      -0.666000
      6 C4           1.0600    -0.8000     0.6160 ca         1 UNL       0.581200
      7 C5           1.4550     0.4700     0.1390 ca         1 UNL      -0.040700
      8 N1           0.6500     1.6200     0.2820 ns         1 UNL      -0.460100
      9 C6          -0.7170     1.7370     0.3050 c          1 UNL       0.736100
     10 O           -1.2180     2.8500     0.4620 o          1 UNL      -0.635500
     11 C7          -1.5990     0.5970     0.0060 ca         1 UNL      -0.254900
     12 C8          -2.7510     0.8280    -0.7530 ca         1 UNL      -0.032000
     13 C9          -3.6240    -0.2200    -1.0120 ca         1 UNL      -0.272300
     14 C10         -3.3350    -1.4530    -0.4590 ca         1 UNL       0.437200
     15 N2          -2.2510    -1.6940     0.3130 nb         1 UNL      -0.689000
     16 C11         -1.3700    -0.6750     0.5210 ca         1 UNL       0.646200
     17 N3          -0.1950    -0.9140     1.2690 na         1 UNL      -0.691000
     18 C12         -0.3120    -1.7390     2.4750 cx         1 UNL       0.134500
     19 C13         -1.0400    -1.1470     3.6620 cx         1 UNL      -0.118900
     20 C14          0.4320    -1.3960     3.7430 cx         1 UNL      -0.118900
     21 H            4.2230     1.8480    -1.3970 hc         1 UNL       0.052700
     22 H1           3.3800     2.6200    -0.0480 hc         1 UNL       0.052700
     23 H2           2.5580     2.3930    -1.6200 hc         1 UNL       0.052700
     24 H3           4.4950    -0.4770    -1.0700 ha         1 UNL       0.148000
     25 H4           3.6280    -2.6490    -0.2470 h4         1 UNL       0.028100
     26 H5           1.1040     2.5240     0.2700 hn         1 UNL       0.331500
     27 H6          -2.9570     1.8210    -1.1440 ha         1 UNL       0.162000
     28 H7          -4.5100    -0.0730    -1.6200 ha         1 UNL       0.152000
     29 H8          -3.9820    -2.3090    -0.6310 h4         1 UNL       0.028100
     30 H9          -0.4650    -2.7930     2.2610 h1         1 UNL       0.097700
     31 H10         -1.7120    -1.7930     4.2180 hc         1 UNL       0.076450
     32 H11         -1.3750    -0.1170     3.5990 hc         1 UNL       0.076450
     33 H12          0.7680    -2.2060     4.3780 hc         1 UNL       0.076450
     34 H13          1.0960    -0.5380     3.7290 hc         1 UNL       0.076450
@<TRIPOS>BOND
     1     1     2 1   
     2     2     3 ar  
     3     3     4 ar  
     4     4     5 ar  
     5     5     6 ar  
     6     6     7 ar  
     7     2     7 ar  
     8     7     8 1   
     9     8     9 1   
    10     9    10 2   
    11     9    11 1   
    12    11    12 ar  
    13    12    13 ar  
    14    13    14 ar  
    15    14    15 ar  
    16    15    16 ar  
    17    11    16 ar  
    18    16    17 1   
    19     6    17 1   
    20    17    18 1   
    21    18    19 1   
    22    19    20 1   
    23    18    20 1   
    24     1    21 1   
    25     1    22 1   
    26     1    23 1   
    27     3    24 1   
    28     4    25 1   
    29     8    26 1   
    30    12    27 1   
    31    13    28 1   
    32    14    29 1   
    33    18    30 1   
    34    19    31 1   
    35    19    32 1   
    36    20    33 1   
    37    20    34 1   
@<TRIPOS>SUBSTRUCTURE
     1 UNL         1 TEMP              0 ****  ****    0 ROOT
