@<TRIPOS>MOLECULE
*****
   28    29     1     0     0
SMALL
bcc


@<TRIPOS>ATOM
      1 O            3.0090    -1.5040     0.6080 oh         1 UNL      -0.612800
      2 C            2.3380    -0.3130     0.1990 c3         1 UNL       0.089400
      3 C1           2.8940     0.8820     0.9770 c3         1 UNL       0.140100
      4 O1           2.5960     0.6400     2.3700 oh         1 UNL      -0.573800
      5 C2           4.4120     1.1380     0.8350 c3         1 UNL       0.059100
      6 O2           4.7910     2.2640     1.6650 os         1 UNL      -0.391600
      7 C3           4.9800     3.4150     0.8480 c3         1 UNL       0.307900
      8 O3           3.8240     4.2420     0.8210 os         1 UNL      -0.412600
      9 C4           3.2650     4.1660    -0.4940 c3         1 UNL       0.343900
     10 C5           2.5640     5.4900    -0.9880 c3         1 UNL       0.215200
     11 Cl           2.4300     6.7320     0.3060 cl         1 UNL      -0.103733
     12 Cl1          3.4270     6.2460    -2.3770 cl         1 UNL      -0.103733
     13 Cl2          0.8820     5.1190    -1.5480 cl         1 UNL      -0.103733
     14 O4           4.2600     3.6430    -1.3940 os         1 UNL      -0.425600
     15 C6           5.2100     2.9640    -0.5680 c3         1 UNL       0.057100
     16 C7           4.9780     1.4580    -0.5540 c3         1 UNL       0.121100
     17 O5           4.1850     1.0410    -1.6550 oh         1 UNL      -0.572800
     18 H            2.6010    -2.2320     0.1030 ho         1 UNL       0.410000
     19 H1           1.2760    -0.4410     0.4400 h1         1 UNL       0.045700
     20 H2           2.4220    -0.2060    -0.8830 h1         1 UNL       0.045700
     21 H3           2.3240     1.7740     0.7230 h1         1 UNL       0.069700
     22 H4           2.9670    -0.2440     2.5690 ho         1 UNL       0.420000
     23 H5           4.9440     0.2730     1.2550 h1         1 UNL       0.104700
     24 H6           5.8110     3.9990     1.2530 h2         1 UNL       0.126700
     25 H7           2.4920     3.3930    -0.4500 h2         1 UNL       0.116700
     26 H8           6.2180     3.2010    -0.9290 h1         1 UNL       0.108700
     27 H9           5.9540     0.9620    -0.6410 h1         1 UNL       0.096700
     28 H10          4.1640     1.7840    -2.2910 ho         1 UNL       0.422000
@<TRIPOS>BOND
     1     1     2 1   
     2     2     3 1   
     3     3     4 1   
     4     3     5 1   
     5     5     6 1   
     6     6     7 1   
     7     7     8 1   
     8     8     9 1   
     9     9    10 1   
    10    10    11 1   
    11    10    12 1   
    12    10    13 1   
    13     9    14 1   
    14    14    15 1   
    15     7    15 1   
    16    15    16 1   
    17     5    16 1   
    18    16    17 1   
    19     1    18 1   
    20     2    19 1   
    21     2    20 1   
    22     3    21 1   
    23     4    22 1   
    24     5    23 1   
    25     7    24 1   
    26     9    25 1   
    27    15    26 1   
    28    16    27 1   
    29    17    28 1   
@<TRIPOS>SUBSTRUCTURE
     1 UNL         1 TEMP              0 ****  ****    0 ROOT
