@<TRIPOS>MOLECULE
*****
   22    24     1     0     0
SMALL
bcc


@<TRIPOS>ATOM
      1 C           -2.4370    -1.0870    -0.0020 ca         1 UNL      -0.123000
      2 C1          -2.4030     0.3200    -0.0020 ca         1 UNL      -0.121000
      3 C2          -1.1450     0.9060     0.0020 ca         1 UNL      -0.070300
      4 C3          -0.0010     0.1350     0.0070 ca         1 UNL      -0.063000
      5 C4           1.1420     0.9070    -0.0010 ca         1 UNL      -0.070300
      6 C5           2.4010     0.3220     0.0050 ca         1 UNL      -0.121000
      7 C6           2.4360    -1.0850     0.0180 ca         1 UNL      -0.123000
      8 C7           1.2590    -1.8610     0.0200 ca         1 UNL      -0.120000
      9 C8          -0.0010    -1.2350     0.0130 ca         1 UNL      -0.022000
     10 C9          -1.2590    -1.8630     0.0070 ca         1 UNL      -0.120000
     11 C10          0.7810     2.3530    -0.0220 c3         1 UNL      -0.033100
     12 C11         -0.7850     2.3520    -0.0000 c3         1 UNL      -0.033100
     13 H           -3.4010    -1.5920    -0.0110 ha         1 UNL       0.129000
     14 H1          -3.3080     0.9160    -0.0070 ha         1 UNL       0.134000
     15 H2           3.3060     0.9190    -0.0020 ha         1 UNL       0.134000
     16 H3           3.4000    -1.5890     0.0230 ha         1 UNL       0.129000
     17 H4           1.3320    -2.9460     0.0280 ha         1 UNL       0.132000
     18 H5          -1.3310    -2.9470     0.0060 ha         1 UNL       0.132000
     19 H6           1.1570     2.8270    -0.9340 hc         1 UNL       0.057700
     20 H7           1.1880     2.8700     0.8520 hc         1 UNL       0.057700
     21 H8          -1.1920     2.8530    -0.8850 hc         1 UNL       0.057700
     22 H9          -1.1630     2.8440     0.9020 hc         1 UNL       0.057700
@<TRIPOS>BOND
     1     1     2 ar  
     2     2     3 ar  
     3     3     4 ar  
     4     4     5 ar  
     5     5     6 ar  
     6     6     7 ar  
     7     7     8 ar  
     8     8     9 ar  
     9     4     9 ar  
    10     9    10 ar  
    11     1    10 ar  
    12     5    11 1   
    13    11    12 1   
    14     3    12 1   
    15     1    13 1   
    16     2    14 1   
    17     6    15 1   
    18     7    16 1   
    19     8    17 1   
    20    10    18 1   
    21    11    19 1   
    22    11    20 1   
    23    12    21 1   
    24    12    22 1   
@<TRIPOS>SUBSTRUCTURE
     1 UNL         1 TEMP              0 ****  ****    0 ROOT
