@<TRIPOS>MOLECULE
*****
   65    67     1     0     0
SMALL
bcc


@<TRIPOS>ATOM
      1 C            8.9690     2.2060    10.2340 c3         1 UNL      -0.095100
      2 C1           7.8600     1.5910     9.3900 c3         1 UNL      -0.078400
      3 C2           8.3400     0.3760     8.5760 c3         1 UNL      -0.109700
      4 C3           8.8230    -0.7600     9.4770 c3         1 UNL      -0.092100
      5 C4           7.2420    -0.1580     7.6790 c          1 UNL       0.646100
      6 O            6.0460    -0.0980     7.9330 o          1 UNL      -0.582000
      7 O1           7.7930    -0.7740     6.5720 os         1 UNL      -0.427900
      8 C5           6.8530    -1.5010     5.7540 c3         1 UNL       0.145100
      9 C6           6.7360    -2.9430     6.2930 c3         1 UNL      -0.086400
     10 C7           7.5660    -4.0250     5.5710 c3         1 UNL      -0.031500
     11 C8           6.9430    -5.4000     5.8390 c3         1 UNL      -0.088100
     12 C9           7.5580    -3.8430     4.0910 c2         1 UNL      -0.151200
     13 C10          7.2420    -2.7000     3.5130 ce         1 UNL      -0.078200
     14 C11          7.0250    -2.5800     2.0990 ce         1 UNL      -0.136000
     15 C12          8.0330    -1.9240     1.5040 c2         1 UNL      -0.151200
     16 C13          8.5040    -0.5690     2.0920 c3         1 UNL      -0.031500
     17 C14         10.0330    -0.6220     1.8120 c3         1 UNL      -0.090100
     18 C15          8.0880    -0.2620     3.6470 c3         1 UNL      -0.044700
     19 C16          7.3290     1.1050     3.9960 c3         1 UNL      -0.093400
     20 C17          7.8380     2.5330     3.7460 c3         1 UNL      -0.082400
     21 C18          6.8500     3.6720     4.2420 c3         1 UNL       0.157100
     22 C19          6.6040     3.8390     5.7460 c3         1 UNL      -0.149400
     23 C20          5.2760     3.2620     6.2110 c3         1 UNL       0.153100
     24 O2           5.0950     3.6230     7.5860 oh         1 UNL      -0.601800
     25 C21          4.1270     3.8290     5.4060 c3         1 UNL      -0.168400
     26 C22          4.4020     3.9400     3.9370 c          1 UNL       0.721600
     27 O3           3.5120     4.2840     3.1620 o          1 UNL      -0.584500
     28 O4           5.6220     3.5930     3.4750 os         1 UNL      -0.423900
     29 C23          7.0720    -1.3720     4.2150 c3         1 UNL      -0.020500
     30 H            8.6160     3.1150    10.7290 hc         1 UNL       0.038700
     31 H1           9.8310     2.4700     9.6130 hc         1 UNL       0.038700
     32 H2           9.3060     1.5160    11.0140 hc         1 UNL       0.038700
     33 H3           7.4710     2.3570     8.7080 hc         1 UNL       0.053700
     34 H4           7.0250     1.3140    10.0460 hc         1 UNL       0.053700
     35 H5           9.1590     0.7070     7.9270 hc         1 UNL       0.084700
     36 H6           8.1240    -0.9370    10.3030 hc         1 UNL       0.049700
     37 H7           9.8030    -0.5260     9.9050 hc         1 UNL       0.049700
     38 H8           8.9200    -1.6990     8.9220 hc         1 UNL       0.049700
     39 H9           5.8650    -1.0480     5.9090 h1         1 UNL       0.077700
     40 H10          5.6780    -3.2200     6.2280 hc         1 UNL       0.054700
     41 H11          6.9910    -2.9740     7.3630 hc         1 UNL       0.054700
     42 H12          8.6000    -4.0160     5.9370 hc         1 UNL       0.065700
     43 H13          5.9550    -5.4770     5.3640 hc         1 UNL       0.036700
     44 H14          6.8180    -5.5880     6.9080 hc         1 UNL       0.036700
     45 H15          7.5640    -6.2010     5.4200 hc         1 UNL       0.036700
     46 H16          7.7640    -4.7150     3.4660 ha         1 UNL       0.127000
     47 H17          6.0330    -2.1310     1.9190 ha         1 UNL       0.128000
     48 H18          8.8770    -2.6150     1.3440 ha         1 UNL       0.125000
     49 H19          8.0870     0.2150     1.4500 hc         1 UNL       0.062700
     50 H20         10.5430    -1.3550     2.4530 hc         1 UNL       0.036700
     51 H21         10.5270     0.3440     1.9050 hc         1 UNL       0.036700
     52 H22         10.2240    -0.9630     0.7750 hc         1 UNL       0.036700
     53 H23          9.0190    -0.2940     4.2310 hc         1 UNL       0.060700
     54 H24          7.1730     1.0800     5.0780 hc         1 UNL       0.053200
     55 H25          6.3330     1.0460     3.5430 hc         1 UNL       0.053200
     56 H26          7.9630     2.6660     2.6650 hc         1 UNL       0.055200
     57 H27          8.8150     2.6860     4.2180 hc         1 UNL       0.055200
     58 H28          7.3250     4.6090     3.9180 h1         1 UNL       0.054700
     59 H29          6.5690     4.9190     5.9680 hc         1 UNL       0.063700
     60 H30          7.4380     3.4690     6.3510 hc         1 UNL       0.063700
     61 H31          5.2920     2.1740     6.1500 h1         1 UNL       0.056700
     62 H32          4.2370     3.2710     7.8850 ho         1 UNL       0.427000
     63 H33          3.8290     4.8160     5.7830 hc         1 UNL       0.095200
     64 H34          3.2560     3.1720     5.5370 hc         1 UNL       0.095200
     65 H35          6.0790    -1.0380     3.8710 hc         1 UNL       0.067700
@<TRIPOS>BOND
     1     1     2 1   
     2     2     3 1   
     3     3     4 1   
     4     3     5 1   
     5     5     6 2   
     6     5     7 1   
     7     7     8 1   
     8     8     9 1   
     9     9    10 1   
    10    10    11 1   
    11    10    12 1   
    12    12    13 2   
    13    13    14 1   
    14    14    15 2   
    15    15    16 1   
    16    16    17 1   
    17    16    18 1   
    18    18    19 1   
    19    19    20 1   
    20    20    21 1   
    21    21    22 1   
    22    22    23 1   
    23    23    24 1   
    24    23    25 1   
    25    25    26 1   
    26    26    27 2   
    27    26    28 1   
    28    21    28 1   
    29    18    29 1   
    30    13    29 1   
    31     8    29 1   
    32     1    30 1   
    33     1    31 1   
    34     1    32 1   
    35     2    33 1   
    36     2    34 1   
    37     3    35 1   
    38     4    36 1   
    39     4    37 1   
    40     4    38 1   
    41     8    39 1   
    42     9    40 1   
    43     9    41 1   
    44    10    42 1   
    45    11    43 1   
    46    11    44 1   
    47    11    45 1   
    48    12    46 1   
    49    14    47 1   
    50    15    48 1   
    51    16    49 1   
    52    17    50 1   
    53    17    51 1   
    54    17    52 1   
    55    18    53 1   
    56    19    54 1   
    57    19    55 1   
    58    20    56 1   
    59    20    57 1   
    60    21    58 1   
    61    22    59 1   
    62    22    60 1   
    63    23    61 1   
    64    24    62 1   
    65    25    63 1   
    66    25    64 1   
    67    29    65 1   
@<TRIPOS>SUBSTRUCTURE
     1 UNL         1 TEMP              0 ****  ****    0 ROOT
