@<TRIPOS>MOLECULE
*****
 40 42 0 0 0
SMALL
GASTEIGER

@<TRIPOS>ATOM
      1 C           1.1429    0.0721    0.1861 C.3     1  UNL1       -0.0445
      2 C           2.6526   -0.0788    0.3637 C.3     1  UNL1        0.0437
      3 C           3.2332    1.1540    1.1073 C.3     1  UNL1       -0.0058
      4 C           4.0237    0.5227    2.2004 C.ar    1  UNL1       -0.0230
      5 C           4.8108    1.1628    3.1483 C.ar    1  UNL1       -0.0567
      6 C           5.4462    0.3806    4.1084 C.ar    1  UNL1       -0.0614
      7 C           5.2999   -1.0137    4.0930 C.ar    1  UNL1       -0.0599
      8 C           4.5028   -1.6421    3.1260 C.ar    1  UNL1       -0.0389
      9 C           3.8498   -0.8635    2.1831 C.ar    1  UNL1        0.0511
     10 N           2.9119   -1.2699    1.2056 N.pl3   1  UNL1       -0.2474
     11 N           3.0505   -2.5751    0.6935 N.am    1  UNL1       -0.2297
     12 C           2.6934   -2.8998   -0.6119 C.2     1  UNL1        0.2603
     13 O           2.5063   -2.1173   -1.5406 O.2     1  UNL1       -0.2687
     14 C           2.4955   -4.3517   -0.8949 C.ar    1  UNL1        0.0401
     15 C           1.6074   -4.7197   -1.9194 C.ar    1  UNL1       -0.0481
     16 C           1.4204   -6.0651   -2.2531 C.ar    1  UNL1       -0.0408
     17 C           2.1113   -7.0647   -1.5654 C.ar    1  UNL1        0.0673
     18 CL          1.8221   -8.6919   -2.0676 Cl      1  UNL1       -0.0815
     19 C           2.9758   -6.7017   -0.5283 C.ar    1  UNL1        0.1239
     20 S           3.7755   -7.9238    0.4593 S.O2    1  UNL1        0.0574
     21 N           2.4691   -8.7769    1.0659 N.3     1  UNL1       -0.2035
     22 O           4.5355   -8.8086   -0.3883 O.2     1  UNL1       -0.1532
     23 O           4.3580   -7.2706    1.6109 O.2     1  UNL1       -0.1532
     24 C           3.1821   -5.3492   -0.2018 C.ar    1  UNL1       -0.0218
     25 H           0.9021    0.9753   -0.3816 H       1  UNL1        0.0248
     26 H           0.6423    0.1335    1.1598 H       1  UNL1        0.0248
     27 H           0.7096   -0.7853   -0.3372 H       1  UNL1        0.0248
     28 H           3.1631   -0.1414   -0.6042 H       1  UNL1        0.0518
     29 H           2.4534    1.8031    1.5190 H       1  UNL1        0.0332
     30 H           3.8756    1.7404    0.4408 H       1  UNL1        0.0332
     31 H           4.9147    2.2431    3.1544 H       1  UNL1        0.0621
     32 H           6.0520    0.8538    4.8776 H       1  UNL1        0.0618
     33 H           5.7985   -1.6114    4.8524 H       1  UNL1        0.0618
     34 H           4.3860   -2.7182    3.1481 H       1  UNL1        0.0637
     35 H           2.9163   -3.2755    1.4131 H       1  UNL1        0.1733
     36 H           1.0574   -3.9565   -2.4688 H       1  UNL1        0.0625
     37 H           0.7301   -6.3257   -3.0535 H       1  UNL1        0.0633
     38 H           2.4426   -9.7203    0.6778 H       1  UNL1        0.1442
     39 H           2.4314   -8.7231    2.0826 H       1  UNL1        0.1442
     40 H           3.8912   -5.0850    0.5806 H       1  UNL1        0.0645
@<TRIPOS>BOND
     1     1     2    1
     2     2     3    1
     3     3     4    1
     4     4     5   ar
     5     5     6   ar
     6     6     7   ar
     7     7     8   ar
     8     8     9   ar
     9     4     9   ar
    10     9    10    1
    11     2    10    1
    12    10    11    1
    13    11    12   am
    14    12    13    2
    15    12    14    1
    16    14    15   ar
    17    15    16   ar
    18    16    17   ar
    19    17    18    1
    20    17    19   ar
    21    19    20    1
    22    20    21    1
    23    20    22    2
    24    20    23    2
    25    19    24   ar
    26    14    24   ar
    27     1    25    1
    28     1    26    1
    29     1    27    1
    30     2    28    1
    31     3    29    1
    32     3    30    1
    33     5    31    1
    34     6    32    1
    35     7    33    1
    36     8    34    1
    37    11    35    1
    38    15    36    1
    39    16    37    1
    40    21    38    1
    41    21    39    1
    42    24    40    1
