@<TRIPOS>MOLECULE
*****
   14    15     1     0     0
SMALL
bcc


@<TRIPOS>ATOM
      1 C            2.1930     0.7380    -0.0070 ca         1 UNL      -0.157000
      2 C1           2.2310    -0.6600    -0.0080 ca         1 UNL      -0.095000
      3 C2           1.0560    -1.4220    -0.0040 ca         1 UNL      -0.133000
      4 C3          -0.1430    -0.7090    -0.0010 ca         1 UNL      -0.068200
      5 N           -1.4570    -1.0820     0.0030 na         1 UNL      -0.065100
      6 N1          -2.2820    -0.0220     0.0060 nc         1 UNL      -0.135400
      7 N2          -1.5250     1.0700     0.0030 nd         1 UNL      -0.215400
      8 C4          -0.2130     0.6780    -0.0010 ca         1 UNL       0.009400
      9 C5           0.9720     1.4260    -0.0040 ca         1 UNL      -0.044000
     10 H            3.1240     1.3020    -0.0090 ha         1 UNL       0.139000
     11 H1           3.1950    -1.1670    -0.0110 ha         1 UNL       0.137000
     12 H2           1.0850    -2.5060    -0.0040 ha         1 UNL       0.143000
     13 H3          -1.8570    -2.0110     0.0050 hn         1 UNL       0.330700
     14 H4           0.9380     2.5100    -0.0040 ha         1 UNL       0.154000
@<TRIPOS>BOND
     1     1     2 ar  
     2     2     3 ar  
     3     3     4 ar  
     4     4     5 1   
     5     5     6 1   
     6     6     7 2   
     7     7     8 1   
     8     4     8 ar  
     9     8     9 ar  
    10     1     9 ar  
    11     1    10 1   
    12     2    11 1   
    13     3    12 1   
    14     5    13 1   
    15     9    14 1   
@<TRIPOS>SUBSTRUCTURE
     1 UNL         1 TEMP              0 ****  ****    0 ROOT
