@<TRIPOS>MOLECULE
*****
 33 34 0 0 0
SMALL
GASTEIGER

@<TRIPOS>ATOM
      1 C           2.5431    0.3500    2.0476 C.3     1  UNL1        0.0048
      2 N           3.3969    0.1337    0.9043 N.am    1  UNL1       -0.2841
      3 C           3.0509   -0.7696   -0.1631 C.3     1  UNL1        0.0592
      4 C           3.9461   -0.3394   -1.3276 C.3     1  UNL1        0.1473
      5 O           3.1421   -0.0854   -2.4700 O.3     1  UNL1       -0.3722
      6 N           4.5686    0.8798   -0.8875 N.am    1  UNL1       -0.2044
      7 C           5.3036    1.8066   -1.5979 C.ar    1  UNL1        0.1936
      8 N           5.7010    2.9921   -1.1910 N.ar    1  UNL1       -0.1253
      9 N           6.2553    3.7440   -2.1986 N.ar    1  UNL1       -0.1441
     10 C           6.2958    3.1003   -3.3475 C.ar    1  UNL1        0.1090
     11 C           6.7894    3.7048   -4.6501 C.3     1  UNL1        0.0127
     12 C           7.1025    5.2022   -4.4398 C.3     1  UNL1       -0.0541
     13 C           8.0766    3.0026   -5.1127 C.3     1  UNL1       -0.0541
     14 C           5.7128    3.6027   -5.7472 C.3     1  UNL1       -0.0541
     15 S           5.7175    1.4777   -3.2276 S.2     1  UNL1       -0.0345
     16 C           4.2647    1.1423    0.4593 C.2     1  UNL1        0.3125
     17 O           4.6057    2.0757    1.1596 O.2     1  UNL1       -0.2519
     18 H           1.8226   -0.4652    2.1429 H       1  UNL1        0.0429
     19 H           2.0150    1.3002    1.9209 H       1  UNL1        0.0429
     20 H           3.1621    0.4099    2.9467 H       1  UNL1        0.0429
     21 H           1.9859   -0.6615   -0.3987 H       1  UNL1        0.0507
     22 H           3.2489   -1.7960    0.1591 H       1  UNL1        0.0507
     23 H           4.7035   -1.0939   -1.5631 H       1  UNL1        0.0828
     24 H           2.7272    0.7836   -2.3142 H       1  UNL1        0.2118
     25 H           7.8771    5.3476   -3.6769 H       1  UNL1        0.0239
     26 H           6.2119    5.7539   -4.1134 H       1  UNL1        0.0239
     27 H           7.4589    5.6692   -5.3655 H       1  UNL1        0.0239
     28 H           8.8553    3.0539   -4.3424 H       1  UNL1        0.0239
     29 H           8.4753    3.4654   -6.0225 H       1  UNL1        0.0239
     30 H           7.9047    1.9426   -5.3349 H       1  UNL1        0.0239
     31 H           4.7765    4.0750   -5.4291 H       1  UNL1        0.0239
     32 H           5.4857    2.5619   -6.0041 H       1  UNL1        0.0239
     33 H           6.0398    4.0978   -6.6686 H       1  UNL1        0.0239
@<TRIPOS>BOND
     1     1     2    1
     2     2     3    1
     3     3     4    1
     4     4     5    1
     5     4     6    1
     6     6     7    1
     7     7     8   ar
     8     8     9   ar
     9     9    10   ar
    10    10    11    1
    11    11    12    1
    12    11    13    1
    13    11    14    1
    14    10    15   ar
    15     7    15   ar
    16     6    16   am
    17     2    16   am
    18    16    17    2
    19     1    18    1
    20     1    19    1
    21     1    20    1
    22     3    21    1
    23     3    22    1
    24     4    23    1
    25     5    24    1
    26    12    25    1
    27    12    26    1
    28    12    27    1
    29    13    28    1
    30    13    29    1
    31    13    30    1
    32    14    31    1
    33    14    32    1
    34    14    33    1
