@<TRIPOS>MOLECULE
*****
 32 36 0 0 0
SMALL
GASTEIGER

@<TRIPOS>ATOM
      1 C          -4.1540   -0.5952   -0.3636 C.ar    1  UNL1       -0.0611
      2 C          -3.7902    0.7603   -0.2439 C.ar    1  UNL1       -0.0611
      3 C          -2.4461    1.1426   -0.1516 C.ar    1  UNL1       -0.0534
      4 C          -1.4835    0.1493   -0.1791 C.ar    1  UNL1       -0.0095
      5 C          -1.8584   -1.2188   -0.3215 C.ar    1  UNL1       -0.0096
      6 C          -3.1824   -1.5996   -0.4170 C.ar    1  UNL1       -0.0534
      7 C          -0.6391   -2.0024   -0.2047 C.ar    1  UNL1       -0.0090
      8 C          -0.3591   -3.3458   -0.3694 C.ar    1  UNL1       -0.0534
      9 C           0.9087   -3.8087    0.0032 C.ar    1  UNL1       -0.0606
     10 C           1.9047   -2.9182    0.4454 C.ar    1  UNL1       -0.0534
     11 C           1.7067   -1.5166    0.3445 C.ar    1  UNL1       -0.0090
     12 C           0.4020   -1.1238    0.0862 C.ar    1  UNL1       -0.0018
     13 C          -0.0489    0.1806    0.0235 C.ar    1  UNL1       -0.0084
     14 C           0.8739    1.2077    0.1129 C.ar    1  UNL1       -0.0457
     15 C           2.2427    0.8886    0.2272 C.ar    1  UNL1       -0.0167
     16 C           3.2121    1.8933    0.1049 C.ar    1  UNL1       -0.0540
     17 C           4.5732    1.5821    0.0800 C.ar    1  UNL1       -0.0612
     18 C           4.9936    0.2695    0.2453 C.ar    1  UNL1       -0.0611
     19 C           4.0510   -0.7437    0.4257 C.ar    1  UNL1       -0.0534
     20 C           2.6718   -0.4768    0.3800 C.ar    1  UNL1       -0.0101
     21 H          -5.2066   -0.8645   -0.3884 H       1  UNL1        0.0618
     22 H          -4.5655    1.5179   -0.1905 H       1  UNL1        0.0618
     23 H          -2.1734    2.1815   -0.0229 H       1  UNL1        0.0624
     24 H          -3.4687   -2.6442   -0.4694 H       1  UNL1        0.0624
     25 H          -1.0951   -4.0327   -0.7735 H       1  UNL1        0.0624
     26 H           1.1452   -4.8668   -0.0682 H       1  UNL1        0.0618
     27 H           2.8388   -3.3180    0.8226 H       1  UNL1        0.0624
     28 H           0.5492    2.2384    0.0190 H       1  UNL1        0.0630
     29 H           2.9136    2.9288   -0.0497 H       1  UNL1        0.0624
     30 H           5.3071    2.3639   -0.0991 H       1  UNL1        0.0618
     31 H           6.0495    0.0174    0.1981 H       1  UNL1        0.0618
     32 H           4.4147   -1.7623    0.5157 H       1  UNL1        0.0624
@<TRIPOS>BOND
     1     1     2   ar
     2     2     3   ar
     3     3     4   ar
     4     4     5   ar
     5     5     6   ar
     6     1     6   ar
     7     5     7    1
     8     7     8   ar
     9     8     9   ar
    10     9    10   ar
    11    10    11   ar
    12    11    12   ar
    13     7    12   ar
    14    12    13   ar
    15     4    13    1
    16    13    14   ar
    17    14    15   ar
    18    15    16   ar
    19    16    17   ar
    20    17    18   ar
    21    18    19   ar
    22    19    20   ar
    23    15    20   ar
    24    11    20   ar
    25     1    21    1
    26     2    22    1
    27     3    23    1
    28     6    24    1
    29     8    25    1
    30     9    26    1
    31    10    27    1
    32    14    28    1
    33    16    29    1
    34    17    30    1
    35    18    31    1
    36    19    32    1
