@<TRIPOS>MOLECULE
*****
 28 29 0 0 0
SMALL
GASTEIGER

@<TRIPOS>ATOM
      1 O           3.0087   -1.5044    0.6082 O.3     1  UNL1       -0.3924
      2 C           2.3380   -0.3132    0.1989 C.3     1  UNL1        0.0727
      3 C           2.8945    0.8823    0.9766 C.3     1  UNL1        0.1069
      4 O           2.5962    0.6399    2.3701 O.3     1  UNL1       -0.3869
      5 C           4.4119    1.1380    0.8346 C.3     1  UNL1        0.1181
      6 O           4.7912    2.2640    1.6645 O.3     1  UNL1       -0.3400
      7 C           4.9802    3.4146    0.8479 C.3     1  UNL1        0.1913
      8 O           3.8239    4.2417    0.8207 O.3     1  UNL1       -0.3157
      9 C           3.2647    4.1662   -0.4942 C.3     1  UNL1        0.2093
     10 C           2.5640    5.4898   -0.9876 C.3     1  UNL1        0.2409
     11 CL          2.4298    6.7323    0.3064 Cl      1  UNL1       -0.0780
     12 CL          3.4267    6.2464   -2.3769 Cl      1  UNL1       -0.0780
     13 CL          0.8824    5.1191   -1.5481 Cl      1  UNL1       -0.0780
     14 O           4.2596    3.6425   -1.3944 O.3     1  UNL1       -0.3363
     15 C           5.2104    2.9636   -0.5683 C.3     1  UNL1        0.1408
     16 C           4.9781    1.4580   -0.5542 C.3     1  UNL1        0.1148
     17 O           4.1854    1.0406   -1.6546 O.3     1  UNL1       -0.3864
     18 H           2.6014   -2.2316    0.1035 H       1  UNL1        0.2095
     19 H           1.2764   -0.4407    0.4397 H       1  UNL1        0.0584
     20 H           2.4220   -0.2062   -0.8828 H       1  UNL1        0.0584
     21 H           2.3238    1.7737    0.7233 H       1  UNL1        0.0643
     22 H           2.9666   -0.2445    2.5687 H       1  UNL1        0.2100
     23 H           4.9442    0.2731    1.2546 H       1  UNL1        0.0650
     24 H           5.8112    3.9988    1.2532 H       1  UNL1        0.0939
     25 H           2.4924    3.3931   -0.4500 H       1  UNL1        0.0955
     26 H           6.2175    3.2014   -0.9289 H       1  UNL1        0.0675
     27 H           5.9538    0.9622   -0.6414 H       1  UNL1        0.0648
     28 H           4.1636    1.7844   -2.2908 H       1  UNL1        0.2100
@<TRIPOS>BOND
     1     1     2    1
     2     2     3    1
     3     3     4    1
     4     3     5    1
     5     5     6    1
     6     6     7    1
     7     7     8    1
     8     8     9    1
     9     9    10    1
    10    10    11    1
    11    10    12    1
    12    10    13    1
    13     9    14    1
    14    14    15    1
    15     7    15    1
    16    15    16    1
    17     5    16    1
    18    16    17    1
    19     1    18    1
    20     2    19    1
    21     2    20    1
    22     3    21    1
    23     4    22    1
    24     5    23    1
    25     7    24    1
    26     9    25    1
    27    15    26    1
    28    16    27    1
    29    17    28    1
