@<TRIPOS>MOLECULE
*****
 20 22 0 0 0
SMALL
GASTEIGER

@<TRIPOS>ATOM
      1 C           0.7287    2.3210    0.0057 C.2     1  UNL1       -0.0534
      2 C          -0.6270    2.3484    0.0030 C.2     1  UNL1       -0.0534
      3 C          -1.1156    0.9200    0.0006 C.ar    1  UNL1       -0.0167
      4 C          -2.3862    0.3596   -0.0003 C.ar    1  UNL1       -0.0540
      5 C          -2.4531   -1.0489    0.0007 C.ar    1  UNL1       -0.0606
      6 C          -1.2960   -1.8575   -0.0005 C.ar    1  UNL1       -0.0540
      7 C          -0.0206   -1.2653   -0.0015 C.ar    1  UNL1       -0.0168
      8 C           1.2311   -1.9071   -0.0042 C.ar    1  UNL1       -0.0540
      9 C           2.4185   -1.1443   -0.0012 C.ar    1  UNL1       -0.0606
     10 C           2.4067    0.2654    0.0045 C.ar    1  UNL1       -0.0540
     11 C           1.1588    0.8747    0.0039 C.ar    1  UNL1       -0.0167
     12 C           0.0062    0.1005    0.0008 C.ar    1  UNL1       -0.0036
     13 H           1.3992    3.1662    0.0092 H       1  UNL1        0.0624
     14 H          -1.2616    3.2209    0.0022 H       1  UNL1        0.0624
     15 H          -3.2766    0.9769   -0.0004 H       1  UNL1        0.0624
     16 H          -3.4301   -1.5289    0.0027 H       1  UNL1        0.0618
     17 H          -1.3970   -2.9395    0.0005 H       1  UNL1        0.0624
     18 H           1.2896   -2.9922   -0.0088 H       1  UNL1        0.0624
     19 H           3.3765   -1.6614   -0.0028 H       1  UNL1        0.0618
     20 H           3.3198    0.8480    0.0084 H       1  UNL1        0.0624
@<TRIPOS>BOND
     1     1     2    2
     2     2     3    1
     3     3     4   ar
     4     4     5   ar
     5     5     6   ar
     6     6     7   ar
     7     7     8   ar
     8     8     9   ar
     9     9    10   ar
    10    10    11   ar
    11     1    11    1
    12    11    12   ar
    13     3    12   ar
    14     7    12   ar
    15     1    13    1
    16     2    14    1
    17     4    15    1
    18     5    16    1
    19     6    17    1
    20     8    18    1
    21     9    19    1
    22    10    20    1
