@<TRIPOS>MOLECULE
*****
 20 21 0 0 0
SMALL
GASTEIGER

@<TRIPOS>ATOM
      1 CL          1.0909    0.1478    0.2753 Cl      1  UNL1       -0.0807
      2 C           2.7918    0.1194    0.2374 C.2     1  UNL1        0.0768
      3 C           3.5726   -0.9697    0.2776 C.2     1  UNL1        0.0667
      4 CL          3.0403   -2.5823    0.4212 Cl      1  UNL1       -0.0844
      5 C           5.0541   -0.5846    0.1637 C.3     1  UNL1        0.1468
      6 CL          5.8389   -0.9989    1.7450 Cl      1  UNL1       -0.1034
      7 C           5.7810   -1.2410   -1.1051 C.3     1  UNL1        0.1468
      8 CL          7.3720   -0.4680   -1.5073 Cl      1  UNL1       -0.1034
      9 C           4.9258   -1.2081   -2.3765 C.2     1  UNL1        0.0667
     10 CL          4.3460    0.2377   -3.0723 Cl      1  UNL1       -0.0844
     11 C           4.7012   -2.4495   -2.8343 C.2     1  UNL1        0.0768
     12 CL          3.7557   -2.8776   -4.1825 Cl      1  UNL1       -0.0807
     13 C           5.4115   -3.3983   -2.0138 C.2     1  UNL1        0.0768
     14 CL          5.4859   -5.0681   -2.3359 Cl      1  UNL1       -0.0807
     15 C           6.0502   -2.7495   -1.0292 C.2     1  UNL1        0.0667
     16 CL          7.1635   -3.4590    0.0533 Cl      1  UNL1       -0.0844
     17 C           4.9075    0.9437    0.1515 C.2     1  UNL1        0.0667
     18 CL          6.2282    2.0200    0.2727 Cl      1  UNL1       -0.0844
     19 C           3.6161    1.3024    0.1788 C.2     1  UNL1        0.0768
     20 CL          3.0098    2.8896    0.2331 Cl      1  UNL1       -0.0807
@<TRIPOS>BOND
     1     1     2    1
     2     2     3    2
     3     3     4    1
     4     3     5    1
     5     5     6    1
     6     5     7    1
     7     7     8    1
     8     7     9    1
     9     9    10    1
    10     9    11    2
    11    11    12    1
    12    11    13    1
    13    13    14    1
    14    13    15    2
    15     7    15    1
    16    15    16    1
    17     5    17    1
    18    17    18    1
    19    17    19    2
    20     2    19    1
    21    19    20    1
