@<TRIPOS>MOLECULE
*****
 28 29 0 0 0
SMALL
GASTEIGER

@<TRIPOS>ATOM
      1 O           0.9444   -0.0508   -0.3483 O.2     1  UNL1       -0.2522
      2 C           2.1341    0.0437   -0.0667 C.2     1  UNL1        0.3081
      3 N           2.7554   -0.6704    0.9483 N.am    1  UNL1       -0.2692
      4 C           2.1242   -1.5876    1.8212 C.ar    1  UNL1        0.0348
      5 C           0.8523   -2.1219    1.5947 C.ar    1  UNL1       -0.0404
      6 C           0.2629   -2.9840    2.5222 C.ar    1  UNL1       -0.0600
      7 C           0.9445   -3.3295    3.6844 C.ar    1  UNL1       -0.0616
      8 C           2.2219   -2.8222    3.9121 C.ar    1  UNL1       -0.0600
      9 C           2.8133   -1.9627    2.9806 C.ar    1  UNL1       -0.0404
     10 N           3.0226    0.9011   -0.6972 N.am    1  UNL1       -0.2692
     11 C           2.7088    1.8614   -1.6872 C.ar    1  UNL1        0.0348
     12 C           1.4145    2.1056   -2.1560 C.ar    1  UNL1       -0.0404
     13 C           1.1767    3.0772   -3.1316 C.ar    1  UNL1       -0.0600
     14 C           2.2326    3.8205   -3.6479 C.ar    1  UNL1       -0.0616
     15 C           3.5263    3.5943   -3.1859 C.ar    1  UNL1       -0.0600
     16 C           3.7639    2.6189   -2.2115 C.ar    1  UNL1       -0.0404
     17 H           3.6870   -0.3833    1.2030 H       1  UNL1        0.1564
     18 H           0.2862   -1.8909    0.6980 H       1  UNL1        0.0636
     19 H          -0.7325   -3.3771    2.3307 H       1  UNL1        0.0618
     20 H           0.4778   -3.9902    4.4098 H       1  UNL1        0.0618
     21 H           2.7531   -3.0886    4.8220 H       1  UNL1        0.0618
     22 H           3.8050   -1.5730    3.1924 H       1  UNL1        0.0636
     23 H           3.9978    0.8020   -0.4650 H       1  UNL1        0.1564
     24 H           0.5541    1.5584   -1.7846 H       1  UNL1        0.0636
     25 H           0.1616    3.2465   -3.4830 H       1  UNL1        0.0618
     26 H           2.0437    4.5748   -4.4071 H       1  UNL1        0.0618
     27 H           4.3523    4.1769   -3.5852 H       1  UNL1        0.0618
     28 H           4.7837    2.4676   -1.8690 H       1  UNL1        0.0636
@<TRIPOS>BOND
     1     1     2    2
     2     2     3   am
     3     3     4    1
     4     4     5   ar
     5     5     6   ar
     6     6     7   ar
     7     7     8   ar
     8     8     9   ar
     9     4     9   ar
    10     2    10   am
    11    10    11    1
    12    11    12   ar
    13    12    13   ar
    14    13    14   ar
    15    14    15   ar
    16    15    16   ar
    17    11    16   ar
    18     3    17    1
    19     5    18    1
    20     6    19    1
    21     7    20    1
    22     8    21    1
    23     9    22    1
    24    10    23    1
    25    12    24    1
    26    13    25    1
    27    14    26    1
    28    15    27    1
    29    16    28    1
