@<TRIPOS>MOLECULE
*****
 43 44 0 0 0
SMALL
GASTEIGER

@<TRIPOS>ATOM
      1 C           1.2507   -0.9292   -2.0312 C.3     1  UNL1        0.0820
      2 O           2.6708   -0.8727   -1.8706 O.3     1  UNL1       -0.4646
      3 C           3.0955   -1.0692   -0.5980 C.2     1  UNL1        0.3373
      4 O           2.3592   -1.2890    0.3476 O.2     1  UNL1       -0.2452
      5 C           4.5837   -1.0109   -0.5365 C.2     1  UNL1        0.0654
      6 C           5.2426   -0.7552    0.6203 C.2     1  UNL1        0.0157
      7 C           4.6371   -0.3829    1.9565 C.3     1  UNL1       -0.0260
      8 N           6.6291   -0.8352    0.6482 N.pl3   1  UNL1       -0.3207
      9 C           7.3940   -1.4451   -0.3355 C.2     1  UNL1        0.0157
     10 C           8.8302   -1.7196    0.0401 C.3     1  UNL1       -0.0260
     11 C           6.8384   -1.7436   -1.5340 C.2     1  UNL1        0.0654
     12 C           7.6408   -2.4484   -2.5769 C.2     1  UNL1        0.3373
     13 O           8.8042   -2.8018   -2.4551 O.2     1  UNL1       -0.2452
     14 O           6.9052   -2.6581   -3.6902 O.3     1  UNL1       -0.4646
     15 C           7.5881   -3.3569   -4.7327 C.3     1  UNL1        0.0820
     16 C           5.3735   -1.3364   -1.8301 C.3     1  UNL1        0.0570
     17 C           5.3616   -0.1350   -2.8011 C.ar    1  UNL1        0.0419
     18 C           6.0006    1.0579   -2.3811 C.ar    1  UNL1       -0.0512
     19 C           6.0992    2.1766   -3.2094 C.ar    1  UNL1       -0.0611
     20 C           5.5623    2.1454   -4.4898 C.ar    1  UNL1       -0.0553
     21 C           4.8884    1.0067   -4.9265 C.ar    1  UNL1        0.0159
     22 C           4.7760   -0.1169   -4.0853 C.ar    1  UNL1        0.2772
     23 N           3.9525   -1.2079   -4.6070 N.pl3   1  UNL1        0.0799
     24 O           4.4323   -2.3440   -4.6557 O.2     1  UNL1        0.0415
     25 O           2.8232   -0.9044   -5.0250 O.co2   1  UNL1       -0.5760
     26 H           1.0105   -0.6463   -3.0589 H       1  UNL1        0.0661
     27 H           0.7550   -0.2218   -1.3595 H       1  UNL1        0.0661
     28 H           0.8937   -1.9489   -1.8584 H       1  UNL1        0.0661
     29 H           3.5510   -0.3410    1.9832 H       1  UNL1        0.0290
     30 H           4.9959    0.6072    2.2592 H       1  UNL1        0.0290
     31 H           4.9551   -1.1028    2.7192 H       1  UNL1        0.0290
     32 H           7.0713   -0.7063    1.5537 H       1  UNL1        0.1516
     33 H           9.0689   -1.3392    1.0390 H       1  UNL1        0.0290
     34 H           9.5182   -1.2218   -0.6529 H       1  UNL1        0.0290
     35 H           9.0291   -2.7964    0.0554 H       1  UNL1        0.0290
     36 H           6.8961   -3.4877   -5.5688 H       1  UNL1        0.0661
     37 H           7.9049   -4.3465   -4.3890 H       1  UNL1        0.0661
     38 H           8.4459   -2.7743   -5.0830 H       1  UNL1        0.0661
     39 H           4.8827   -2.2113   -2.2664 H       1  UNL1        0.0454
     40 H           6.4373    1.1284   -1.3849 H       1  UNL1        0.0623
     41 H           6.6035    3.0704   -2.8485 H       1  UNL1        0.0618
     42 H           5.6537    3.0122   -5.1391 H       1  UNL1        0.0620
     43 H           4.4455    1.0041   -5.9210 H       1  UNL1        0.0685
@<TRIPOS>UNITY_ATOM_ATTR
23 1
charge 1
25 1
charge -1
@<TRIPOS>BOND
     1     1     2    1
     2     2     3    1
     3     3     4    2
     4     3     5    1
     5     5     6    2
     6     6     7    1
     7     6     8    1
     8     8     9    1
     9     9    10    1
    10     9    11    2
    11    11    12    1
    12    12    13    2
    13    12    14    1
    14    14    15    1
    15    11    16    1
    16     5    16    1
    17    16    17    1
    18    17    18   ar
    19    18    19   ar
    20    19    20   ar
    21    20    21   ar
    22    21    22   ar
    23    17    22   ar
    24    22    23    1
    25    23    24    2
    26    23    25    1
    27     1    26    1
    28     1    27    1
    29     1    28    1
    30     7    29    1
    31     7    30    1
    32     7    31    1
    33     8    32    1
    34    10    33    1
    35    10    34    1
    36    10    35    1
    37    15    36    1
    38    15    37    1
    39    15    38    1
    40    16    39    1
    41    18    40    1
    42    19    41    1
    43    20    42    1
    44    21    43    1
