@<TRIPOS>MOLECULE
*****
 19 19 0 0 0
SMALL
GASTEIGER

@<TRIPOS>ATOM
      1 C           1.2095    0.0298    0.0688 C.3     1  UNL1        0.0125
      2 C           2.6931    0.0813   -0.1883 C.2     1  UNL1        0.2156
      3 O           3.1341    0.0247   -1.3295 O.2     1  UNL1       -0.2757
      4 N           3.4182    0.1913    0.9770 N.am    1  UNL1       -0.2635
      5 C           4.7821    0.3119    1.0769 C.ar    1  UNL1        0.1893
      6 N           5.4113    0.2366    2.2330 N.ar    1  UNL1       -0.1239
      7 N           6.7781    0.3947    2.0938 N.ar    1  UNL1       -0.1190
      8 C           7.0950    0.6169    0.8339 C.ar    1  UNL1        0.2556
      9 S           8.7262    0.8998    0.2350 S.O2    1  UNL1        0.0815
     10 N           9.7848    0.7419    1.5427 N.3     1  UNL1       -0.2015
     11 O           9.0160   -0.1906   -0.6670 O.2     1  UNL1       -0.1512
     12 O           8.7654    2.2891   -0.1639 O.2     1  UNL1       -0.1512
     13 S           5.7943    0.6343   -0.2587 S.2     1  UNL1       -0.0105
     14 H           0.6882   -0.2404   -0.8541 H       1  UNL1        0.0323
     15 H           0.8627    1.0131    0.3982 H       1  UNL1        0.0323
     16 H           0.9782   -0.7215    0.8290 H       1  UNL1        0.0323
     17 H           2.9487    0.0903    1.8666 H       1  UNL1        0.1568
     18 H           9.7575   -0.1979    1.9337 H       1  UNL1        0.1443
     19 H           9.6355    1.4793    2.2301 H       1  UNL1        0.1443
@<TRIPOS>BOND
     1     1     2    1
     2     2     3    2
     3     2     4   am
     4     4     5    1
     5     5     6   ar
     6     6     7   ar
     7     7     8   ar
     8     8     9    1
     9     9    10    1
    10     9    11    2
    11     9    12    2
    12     8    13   ar
    13     5    13   ar
    14     1    14    1
    15     1    15    1
    16     1    16    1
    17     4    17    1
    18    10    18    1
    19    10    19    1
