@<TRIPOS>MOLECULE
*****
   30    31     1     0     0
SMALL
bcc


@<TRIPOS>ATOM
      1 C            0.8440     0.0490    -0.2310 c3         1 UNL      -0.101100
      2 C1           2.3530    -0.0120    -0.0240 c3         1 UNL      -0.056400
      3 C2           2.9490     1.0320     0.9880 c3         1 UNL      -0.117700
      4 C3           2.3850     0.9120     2.4250 ca         1 UNL      -0.085300
      5 C4           1.9700    -0.3290     2.9470 ca         1 UNL      -0.117000
      6 C5           1.4920    -0.4540     4.2550 ca         1 UNL      -0.130000
      7 C6           1.4350     0.6590     5.0850 ca         1 UNL      -0.123000
      8 C7           1.8620     1.8930     4.6080 ca         1 UNL      -0.130000
      9 C8           2.3420     2.0180     3.2960 ca         1 UNL      -0.117000
     10 C9           2.7060     2.4060     0.3360 c          1 UNL       0.701000
     11 O            1.7440     3.1390     0.5680 o          1 UNL      -0.624500
     12 N            3.5440     2.7640    -0.6870 ns         1 UNL      -0.591900
     13 C10          4.9250     2.4360    -0.6470 c3         1 UNL       0.266400
     14 N1           5.1840     1.1610    -0.0780 ns         1 UNL      -0.591900
     15 C11          4.4590     0.7160     0.9960 c          1 UNL       0.701000
     16 O1           5.0180    -0.0270     1.8020 o          1 UNL      -0.624500
     17 H            0.5560    -0.6610    -1.0140 hc         1 UNL       0.046033
     18 H1           0.5160     1.0410    -0.5550 hc         1 UNL       0.046033
     19 H2           0.2940    -0.2200     0.6740 hc         1 UNL       0.046033
     20 H3           2.8180     0.1230    -1.0100 hc         1 UNL       0.063700
     21 H4           2.6290    -1.0320     0.2720 hc         1 UNL       0.063700
     22 H5           2.0230    -1.2360     2.3490 ha         1 UNL       0.149500
     23 H6           1.1740    -1.4260     4.6240 ha         1 UNL       0.135500
     24 H7           1.0680     0.5610     6.1030 ha         1 UNL       0.134000
     25 H8           1.8270     2.7650     5.2560 ha         1 UNL       0.135500
     26 H9           2.6670     3.0020     2.9730 ha         1 UNL       0.149500
     27 H10          3.2970     3.6620    -1.0840 hn         1 UNL       0.331000
     28 H11          5.4420     3.1920    -0.0480 h2         1 UNL       0.055200
     29 H12          5.3200     2.4530    -1.6670 h2         1 UNL       0.055200
     30 H13          6.1540     0.8720    -0.0240 hn         1 UNL       0.331000
@<TRIPOS>BOND
     1     1     2 1   
     2     2     3 1   
     3     3     4 1   
     4     4     5 ar  
     5     5     6 ar  
     6     6     7 ar  
     7     7     8 ar  
     8     8     9 ar  
     9     4     9 ar  
    10     3    10 1   
    11    10    11 2   
    12    10    12 1   
    13    12    13 1   
    14    13    14 1   
    15    14    15 1   
    16     3    15 1   
    17    15    16 2   
    18     1    17 1   
    19     1    18 1   
    20     1    19 1   
    21     2    20 1   
    22     2    21 1   
    23     5    22 1   
    24     6    23 1   
    25     7    24 1   
    26     8    25 1   
    27     9    26 1   
    28    12    27 1   
    29    13    28 1   
    30    13    29 1   
    31    14    30 1   
@<TRIPOS>SUBSTRUCTURE
     1 UNL         1 TEMP              0 ****  ****    0 ROOT
