@<TRIPOS>MOLECULE
*****
 51 55 0 0 0
SMALL
GASTEIGER

@<TRIPOS>ATOM
      1 C           1.2323    0.5787   -0.1582 C.2     1  UNL1       -0.0962
      2 C           2.5694    0.4803   -0.0843 C.2     1  UNL1       -0.0395
      3 C           3.1978   -0.8824    0.1369 C.3     1  UNL1       -0.0406
      4 C           3.5556    1.6481   -0.1759 C.3     1  UNL1        0.1249
      5 C           4.5637    1.4479   -1.2846 C.3     1  UNL1        0.0204
      6 C           4.9743    2.8631   -1.4697 C.ar    1  UNL1        0.0404
      7 C           3.9889    3.6926   -1.0187 C.ar    1  UNL1        0.1282
      8 C           4.0715    5.0488   -1.3236 C.ar    1  UNL1       -0.0187
      9 C           5.1498    5.5471   -2.1493 C.ar    1  UNL1       -0.0442
     10 C           6.1502    4.6815   -2.6402 C.ar    1  UNL1        0.0603
     11 C           6.0314    3.3343   -2.2249 C.ar    1  UNL1        0.1383
     12 O           6.8164    2.3420   -2.7522 O.3     1  UNL1       -0.4833
     13 C           6.8660    2.6802   -4.1129 C.3     1  UNL1        0.1478
     14 C           6.8985    1.4572   -4.9539 C.3     1  UNL1        0.1273
     15 O           6.7713    1.9942   -6.2744 O.3     1  UNL1       -0.4879
     16 C           8.0468    2.4595   -6.5530 C.ar    1  UNL1        0.1283
     17 C           8.6635    1.5521   -7.4168 C.ar    1  UNL1        0.0257
     18 C           9.9950    1.2771   -7.2054 C.ar    1  UNL1        0.1650
     19 O          10.5177    0.0579   -7.5842 O.3     1  UNL1       -0.4913
     20 C           9.6914   -1.0532   -7.1762 C.3     1  UNL1        0.0790
     21 C          10.7685    2.1906   -6.4712 C.ar    1  UNL1        0.1620
     22 O          12.0720    1.8212   -6.2292 O.3     1  UNL1       -0.4914
     23 C          13.0708    2.7451   -6.6454 C.3     1  UNL1        0.0790
     24 C          10.1421    3.2494   -5.7341 C.ar    1  UNL1       -0.0088
     25 C           8.7225    3.3264   -5.6470 C.ar    1  UNL1        0.0122
     26 C           8.0045    3.6909   -4.2918 C.3     1  UNL1        0.0908
     27 C           7.2270    4.9702   -3.8137 C.2     1  UNL1        0.1778
     28 O           7.4241    6.0977   -4.2524 O.2     1  UNL1       -0.2912
     29 O           2.9758    2.9927   -0.3877 O.3     1  UNL1       -0.4838
     30 H           0.5949   -0.2993   -0.0659 H       1  UNL1        0.0535
     31 H           0.7312    1.5297   -0.3004 H       1  UNL1        0.0535
     32 H           2.4545   -1.6865    0.1899 H       1  UNL1        0.0275
     33 H           3.7628   -0.8972    1.0748 H       1  UNL1        0.0275
     34 H           3.8795   -1.1408   -0.6822 H       1  UNL1        0.0275
     35 H           4.0807    1.7015    0.7905 H       1  UNL1        0.0784
     36 H           4.0737    1.0969   -2.2285 H       1  UNL1        0.0355
     37 H           5.3791    0.7710   -1.0378 H       1  UNL1        0.0355
     38 H           3.2802    5.7204   -0.9826 H       1  UNL1        0.0654
     39 H           5.1385    6.5971   -2.4322 H       1  UNL1        0.0627
     40 H           5.9197    3.1473   -4.4643 H       1  UNL1        0.0778
     41 H           6.0392    0.8158   -4.7420 H       1  UNL1        0.0734
     42 H           7.7991    0.8492   -4.7851 H       1  UNL1        0.0734
     43 H           8.0331    0.8651   -7.9750 H       1  UNL1        0.0692
     44 H          10.2724   -1.9775   -7.2622 H       1  UNL1        0.0660
     45 H           8.8180   -1.1648   -7.8299 H       1  UNL1        0.0660
     46 H           9.3655   -0.9658   -6.1306 H       1  UNL1        0.0660
     47 H          13.6192    2.3317   -7.5013 H       1  UNL1        0.0660
     48 H          13.7863    2.8399   -5.8219 H       1  UNL1        0.0660
     49 H          12.6912    3.7363   -6.9067 H       1  UNL1        0.0660
     50 H          10.7699    3.8423   -5.0714 H       1  UNL1        0.0659
     51 H           8.7754    3.5685   -3.5168 H       1  UNL1        0.0468
@<TRIPOS>BOND
     1     1     2    2
     2     2     3    1
     3     2     4    1
     4     4     5    1
     5     5     6    1
     6     6     7   ar
     7     7     8   ar
     8     8     9   ar
     9     9    10   ar
    10    10    11   ar
    11     6    11   ar
    12    11    12    1
    13    12    13    1
    14    13    14    1
    15    14    15    1
    16    15    16    1
    17    16    17   ar
    18    17    18   ar
    19    18    19    1
    20    19    20    1
    21    18    21   ar
    22    21    22    1
    23    22    23    1
    24    21    24   ar
    25    24    25   ar
    26    16    25   ar
    27    25    26    1
    28    13    26    1
    29    26    27    1
    30    10    27    1
    31    27    28    2
    32     7    29    1
    33     4    29    1
    34     1    30    1
    35     1    31    1
    36     3    32    1
    37     3    33    1
    38     3    34    1
    39     4    35    1
    40     5    36    1
    41     5    37    1
    42     8    38    1
    43     9    39    1
    44    13    40    1
    45    14    41    1
    46    14    42    1
    47    17    43    1
    48    20    44    1
    49    20    45    1
    50    20    46    1
    51    23    47    1
    52    23    48    1
    53    23    49    1
    54    24    50    1
    55    26    51    1
