@<TRIPOS>MOLECULE
*****
   45    46     1     0     0
SMALL
bcc


@<TRIPOS>ATOM
      1 C            2.5120     1.0870    -0.0930 c3         1 UNL      -0.052800
      2 C1           1.2320     0.3040    -0.0690 ca         1 UNL      -0.078300
      3 C2           1.1660    -0.9530     0.5360 ca         1 UNL      -0.125000
      4 C3          -0.0360    -1.6700     0.5600 ca         1 UNL      -0.157000
      5 C4          -1.2030    -1.1600    -0.0320 ca         1 UNL       0.137400
      6 N           -2.4450    -1.8220     0.0140 ne         1 UNL      -0.630100
      7 C5          -2.5400    -3.1060    -0.0270 c2         1 UNL       0.628600
      8 N1          -3.7100    -3.8540    -0.0350 nh         1 UNL      -0.685600
      9 C6          -4.9870    -3.1370    -0.0310 c3         1 UNL       0.195100
     10 C7          -3.7950    -5.2350    -0.0510 c2         1 UNL       0.628600
     11 N2          -4.8730    -5.9510    -0.0920 ne         1 UNL      -0.630100
     12 C8          -4.7620    -7.3570    -0.0730 ca         1 UNL       0.137400
     13 C9          -3.7230    -8.0340    -0.7290 ca         1 UNL      -0.157000
     14 C10         -3.6220    -9.4240    -0.6820 ca         1 UNL      -0.125000
     15 C11         -4.5770   -10.1780     0.0020 ca         1 UNL      -0.078300
     16 C12         -4.4700   -11.6690     0.0700 c3         1 UNL      -0.052800
     17 C13         -5.6380    -9.5150     0.6320 ca         1 UNL      -0.128500
     18 C14         -5.7400    -8.1120     0.5980 ca         1 UNL      -0.048300
     19 C15         -6.8920    -7.4370     1.2940 c3         1 UNL      -0.046800
     20 C16         -1.1410     0.1160    -0.6290 ca         1 UNL      -0.048300
     21 C17         -2.3440     0.7610    -1.2640 c3         1 UNL      -0.046800
     22 C18          0.0730     0.8320    -0.6470 ca         1 UNL      -0.128500
     23 H            3.3260     0.5360     0.3900 hc         1 UNL       0.044367
     24 H1           2.3890     2.0360     0.4390 hc         1 UNL       0.044367
     25 H2           2.8120     1.2890    -1.1260 hc         1 UNL       0.044367
     26 H3           2.0470    -1.3810     1.0050 ha         1 UNL       0.131500
     27 H4          -0.0460    -2.6310     1.0650 ha         1 UNL       0.127000
     28 H5          -1.6480    -3.7590    -0.0770 h5         1 UNL      -0.003200
     29 H6          -4.8740    -2.0490    -0.0180 h1         1 UNL       0.055367
     30 H7          -5.5710    -3.4130     0.8550 h1         1 UNL       0.055367
     31 H8          -5.5680    -3.3910    -0.9240 h1         1 UNL       0.055367
     32 H9          -2.7910    -5.6930    -0.0180 h5         1 UNL      -0.003200
     33 H10         -2.9700    -7.4840    -1.2850 ha         1 UNL       0.127000
     34 H11         -2.7900    -9.9090    -1.1860 ha         1 UNL       0.131500
     35 H12         -3.5880   -12.0330    -0.4670 hc         1 UNL       0.044367
     36 H13         -5.3530   -12.1340    -0.3820 hc         1 UNL       0.044367
     37 H14         -4.3840   -11.9920     1.1120 hc         1 UNL       0.044367
     38 H15         -6.3870   -10.0990     1.1630 ha         1 UNL       0.133000
     39 H16         -7.5550    -8.1650     1.7720 hc         1 UNL       0.047533
     40 H17         -7.4920    -6.8650     0.5790 hc         1 UNL       0.047533
     41 H18         -6.5210    -6.7660     2.0750 hc         1 UNL       0.047533
     42 H19         -3.2520     0.1590    -1.1770 hc         1 UNL       0.047533
     43 H20         -2.1570     0.9240    -2.3300 hc         1 UNL       0.047533
     44 H21         -2.5460     1.7260    -0.7870 hc         1 UNL       0.047533
     45 H22          0.1050     1.8150    -1.1130 ha         1 UNL       0.133000
@<TRIPOS>BOND
     1     1     2 1   
     2     2     3 ar  
     3     3     4 ar  
     4     4     5 ar  
     5     5     6 1   
     6     6     7 2   
     7     7     8 1   
     8     8     9 1   
     9     8    10 1   
    10    10    11 2   
    11    11    12 1   
    12    12    13 ar  
    13    13    14 ar  
    14    14    15 ar  
    15    15    16 1   
    16    15    17 ar  
    17    17    18 ar  
    18    12    18 ar  
    19    18    19 1   
    20     5    20 ar  
    21    20    21 1   
    22    20    22 ar  
    23     2    22 ar  
    24     1    23 1   
    25     1    24 1   
    26     1    25 1   
    27     3    26 1   
    28     4    27 1   
    29     7    28 1   
    30     9    29 1   
    31     9    30 1   
    32     9    31 1   
    33    10    32 1   
    34    13    33 1   
    35    14    34 1   
    36    16    35 1   
    37    16    36 1   
    38    16    37 1   
    39    17    38 1   
    40    19    39 1   
    41    19    40 1   
    42    19    41 1   
    43    21    42 1   
    44    21    43 1   
    45    21    44 1   
    46    22    45 1   
@<TRIPOS>SUBSTRUCTURE
     1 UNL         1 TEMP              0 ****  ****    0 ROOT
