@<TRIPOS>MOLECULE
*****
   33    34     1     0     0
SMALL
bcc


@<TRIPOS>ATOM
      1 C            0.8840    -0.3070    -0.1060 c3         1 UNL      -0.103100
      2 C1           2.3830    -0.0180    -0.0610 c3         1 UNL      -0.063400
      3 C2           2.9050     0.8070     1.1590 c3         1 UNL      -0.117800
      4 C3           2.5990     0.2110     2.5590 c2         1 UNL      -0.139400
      5 C4           2.4020    -1.1080     2.7780 c2         1 UNL      -0.128200
      6 C5           2.0210    -1.7130     4.1000 c3         1 UNL      -0.050200
      7 C6           1.5840    -0.6750     5.1300 c3         1 UNL      -0.079400
      8 C7           2.5340     0.5140     5.1110 c3         1 UNL      -0.074400
      9 C8           2.5350     1.1810     3.7320 c3         1 UNL      -0.044200
     10 C9           2.2890     2.2140     1.0410 c          1 UNL       0.712000
     11 O            1.0990     2.4550     1.2440 o          1 UNL      -0.592500
     12 N            3.1090     3.2470     0.6930 ns         1 UNL      -0.594000
     13 C10          4.4580     3.2110     0.5660 c          1 UNL       0.819500
     14 O1           5.1080     4.2150     0.3070 o          1 UNL      -0.619500
     15 N1           5.0500     2.0050     0.7450 ns         1 UNL      -0.594000
     16 C11          4.4350     0.8150     1.0020 c          1 UNL       0.712000
     17 O2           5.1250    -0.2070     1.0430 o          1 UNL      -0.592500
     18 H            0.6540    -0.9020    -0.9960 hc         1 UNL       0.050033
     19 H1           0.2910     0.6080    -0.1720 hc         1 UNL       0.050033
     20 H2           0.5430    -0.8770     0.7620 hc         1 UNL       0.050033
     21 H3           2.6470     0.5110    -0.9870 hc         1 UNL       0.062200
     22 H4           2.9100    -0.9800    -0.1200 hc         1 UNL       0.062200
     23 H5           2.5100    -1.8280     1.9700 ha         1 UNL       0.147000
     24 H6           2.8760    -2.2810     4.4850 hc         1 UNL       0.056700
     25 H7           1.2040    -2.4270     3.9470 hc         1 UNL       0.056700
     26 H8           1.5550    -1.1280     6.1270 hc         1 UNL       0.045200
     27 H9           0.5650    -0.3350     4.9040 hc         1 UNL       0.045200
     28 H10          3.5480     0.1800     5.3640 hc         1 UNL       0.045200
     29 H11          2.2380     1.2430     5.8740 hc         1 UNL       0.045200
     30 H12          3.3800     1.8780     3.6900 hc         1 UNL       0.058200
     31 H13          1.6160     1.7730     3.6480 hc         1 UNL       0.058200
     32 H14          2.6760     4.1580     0.6190 hn         1 UNL       0.357500
     33 H15          6.0530     1.9750     0.6200 hn         1 UNL       0.357500
@<TRIPOS>BOND
     1     1     2 1   
     2     2     3 1   
     3     3     4 1   
     4     4     5 2   
     5     5     6 1   
     6     6     7 1   
     7     7     8 1   
     8     8     9 1   
     9     4     9 1   
    10     3    10 1   
    11    10    11 2   
    12    10    12 1   
    13    12    13 1   
    14    13    14 2   
    15    13    15 1   
    16    15    16 1   
    17     3    16 1   
    18    16    17 2   
    19     1    18 1   
    20     1    19 1   
    21     1    20 1   
    22     2    21 1   
    23     2    22 1   
    24     5    23 1   
    25     6    24 1   
    26     6    25 1   
    27     7    26 1   
    28     7    27 1   
    29     8    28 1   
    30     8    29 1   
    31     9    30 1   
    32     9    31 1   
    33    12    32 1   
    34    15    33 1   
@<TRIPOS>SUBSTRUCTURE
     1 UNL         1 TEMP              0 ****  ****    0 ROOT
