@<TRIPOS>MOLECULE
*****
 72 77 0 0 0
SMALL
GASTEIGER

@<TRIPOS>ATOM
      1 C           2.1881   -0.1446    1.8747 C.3     1  UNL1       -0.0602
      2 C           3.4224    0.0515    0.9429 C.3     1  UNL1       -0.0180
      3 C           3.6711    1.5580    0.7563 C.3     1  UNL1        0.0508
      4 O           2.4495    2.2053    0.3523 O.3     1  UNL1       -0.3737
      5 C           1.9421    1.7173   -0.8901 C.3     1  UNL1        0.0854
      6 C           0.4189    2.2078   -1.1224 C.3     1  UNL1       -0.0159
      7 C          -0.0548    1.7358   -2.5943 C.3     1  UNL1        0.0022
      8 C           0.7480    2.8143   -3.3759 C.3     1  UNL1       -0.0566
      9 C           0.2468    0.2095   -2.3464 C.3     1  UNL1        0.0654
     10 C          -0.6917   -0.8086   -2.8974 C.3     1  UNL1       -0.0222
     11 C          -1.5289    0.0406   -3.7702 C.3     1  UNL1       -0.0262
     12 C          -0.9160   -0.0787   -5.2198 C.3     1  UNL1       -0.0164
     13 C           0.1361    0.9534   -5.6322 C.2     1  UNL1       -0.0805
     14 C          -0.0013    1.7867   -6.6905 C.2     1  UNL1       -0.0648
     15 C           0.4531    3.2311   -6.7785 C.3     1  UNL1       -0.0051
     16 C          -0.7319    4.1064   -7.2523 C.3     1  UNL1        0.0590
     17 O          -0.3741    5.4908   -7.2395 O.3     1  UNL1       -0.3915
     18 C          -1.1916    3.7010   -8.6449 C.3     1  UNL1       -0.0258
     19 C          -1.6064    2.2361   -8.6989 C.3     1  UNL1       -0.0416
     20 C          -0.6863    1.2627   -7.9385 C.3     1  UNL1       -0.0106
     21 C           0.5195    0.8964   -8.8610 C.3     1  UNL1       -0.0558
     22 C          -1.5286    0.0312   -7.5742 C.3     1  UNL1       -0.0405
     23 C          -2.1004    0.1096   -6.1307 C.3     1  UNL1       -0.0337
     24 C          -2.8841    1.3724   -5.6035 C.3     1  UNL1       -0.0491
     25 C          -2.2331    2.2683   -4.4335 C.3     1  UNL1       -0.0465
     26 C          -1.5797    1.5176   -3.1914 C.3     1  UNL1       -0.0208
     27 C          -2.5016    1.8451   -2.0030 C.3     1  UNL1       -0.0587
     28 O           1.5980   -0.1999   -2.3107 O.3     1  UNL1       -0.3702
     29 C           1.9934    0.1608   -1.0008 C.3     1  UNL1        0.0855
     30 C           3.2264   -0.5180   -0.4688 C.3     1  UNL1       -0.0195
     31 H           2.3829    0.2849    2.8613 H       1  UNL1        0.0233
     32 H           1.9355   -1.2001    1.9769 H       1  UNL1        0.0233
     33 H           1.2904    0.3668    1.5191 H       1  UNL1        0.0233
     34 H           4.2920   -0.4335    1.4049 H       1  UNL1        0.0321
     35 H           4.4547    1.7304   -0.0079 H       1  UNL1        0.0562
     36 H           4.0023    2.0057    1.6798 H       1  UNL1        0.0562
     37 H           2.5826    2.1277   -1.6819 H       1  UNL1        0.0622
     38 H           0.3452    3.2926   -0.9761 H       1  UNL1        0.0297
     39 H          -0.1979    1.7910   -0.3151 H       1  UNL1        0.0297
     40 H           1.3242    3.5049   -2.7434 H       1  UNL1        0.0236
     41 H           0.0670    3.5218   -3.8506 H       1  UNL1        0.0236
     42 H           1.5226    2.4704   -4.0520 H       1  UNL1        0.0236
     43 H          -0.1654    0.0699   -1.3325 H       1  UNL1        0.0602
     44 H          -1.3259   -1.2301   -2.1041 H       1  UNL1        0.0293
     45 H          -0.2056   -1.6697   -3.3660 H       1  UNL1        0.0293
     46 H          -2.5419   -0.3932   -3.7503 H       1  UNL1        0.0313
     47 H          -0.4838   -1.0733   -5.3693 H       1  UNL1        0.0349
     48 H           0.9364    1.0485   -4.9318 H       1  UNL1        0.0575
     49 H           1.3026    3.3431   -7.4568 H       1  UNL1        0.0335
     50 H           0.7980    3.6214   -5.8242 H       1  UNL1        0.0335
     51 H          -1.5840    4.0204   -6.5755 H       1  UNL1        0.0596
     52 H           0.2697    5.6331   -7.9241 H       1  UNL1        0.2098
     53 H          -0.3996    3.8928   -9.3737 H       1  UNL1        0.0290
     54 H          -2.0437    4.3196   -8.9576 H       1  UNL1        0.0290
     55 H          -1.6778    1.9238   -9.7506 H       1  UNL1        0.0274
     56 H          -2.6344    2.1611   -8.3313 H       1  UNL1        0.0274
     57 H           1.0123    1.7977   -9.2459 H       1  UNL1        0.0238
     58 H           0.2041    0.2960   -9.7183 H       1  UNL1        0.0238
     59 H           1.2850    0.3325   -8.3198 H       1  UNL1        0.0238
     60 H          -0.8863   -0.8673   -7.6295 H       1  UNL1        0.0276
     61 H          -2.3267   -0.1566   -8.2975 H       1  UNL1        0.0276
     62 H          -2.7683   -0.7614   -6.0243 H       1  UNL1        0.0307
     63 H          -3.1905    2.0236   -6.4204 H       1  UNL1        0.0268
     64 H          -3.8313    0.9879   -5.1961 H       1  UNL1        0.0268
     65 H          -3.0640    2.9003   -4.0891 H       1  UNL1        0.0271
     66 H          -1.5347    2.9742   -4.8581 H       1  UNL1        0.0271
     67 H          -3.5495    1.6130   -2.1981 H       1  UNL1        0.0235
     68 H          -2.4433    2.9349   -1.8198 H       1  UNL1        0.0235
     69 H          -2.2127    1.3595   -1.0703 H       1  UNL1        0.0235
     70 H           1.2471   -0.2671   -0.3323 H       1  UNL1        0.0622
     71 H           4.0957   -0.3527   -1.1143 H       1  UNL1        0.0294
     72 H           3.0723   -1.6040   -0.4438 H       1  UNL1        0.0294
@<TRIPOS>BOND
     1     1     2    1
     2     2     3    1
     3     3     4    1
     4     4     5    1
     5     5     6    1
     6     6     7    1
     7     7     8    1
     8     7     9    1
     9     9    10    1
    10    10    11    1
    11    11    12    1
    12    12    13    1
    13    13    14    2
    14    14    15    1
    15    15    16    1
    16    16    17    1
    17    16    18    1
    18    18    19    1
    19    19    20    1
    20    14    20    1
    21    20    21    1
    22    20    22    1
    23    22    23    1
    24    12    23    1
    25    23    24    1
    26    24    25    1
    27    25    26    1
    28    11    26    1
    29     7    26    1
    30    26    27    1
    31     9    28    1
    32    28    29    1
    33     5    29    1
    34    29    30    1
    35     2    30    1
    36     1    31    1
    37     1    32    1
    38     1    33    1
    39     2    34    1
    40     3    35    1
    41     3    36    1
    42     5    37    1
    43     6    38    1
    44     6    39    1
    45     8    40    1
    46     8    41    1
    47     8    42    1
    48     9    43    1
    49    10    44    1
    50    10    45    1
    51    11    46    1
    52    12    47    1
    53    13    48    1
    54    15    49    1
    55    15    50    1
    56    16    51    1
    57    17    52    1
    58    18    53    1
    59    18    54    1
    60    19    55    1
    61    19    56    1
    62    21    57    1
    63    21    58    1
    64    21    59    1
    65    22    60    1
    66    22    61    1
    67    23    62    1
    68    24    63    1
    69    24    64    1
    70    25    65    1
    71    25    66    1
    72    27    67    1
    73    27    68    1
    74    27    69    1
    75    29    70    1
    76    30    71    1
    77    30    72    1
