@<TRIPOS>MOLECULE
*****
 17 18 0 0 0
SMALL
GASTEIGER

@<TRIPOS>ATOM
      1 O           1.2984    0.6002   -0.2509 O.2     1  UNL1       -0.2957
      2 C           2.3400   -0.0075   -0.0350 C.2     1  UNL1        0.1503
      3 C           3.1062   -0.6578   -1.1165 C.ar    1  UNL1        0.0179
      4 C           2.6450   -0.5856   -2.4472 C.ar    1  UNL1       -0.0478
      5 C           3.3646   -1.1990   -3.4774 C.ar    1  UNL1       -0.0155
      6 C           4.5199   -1.8702   -3.1380 C.ar    1  UNL1        0.1663
      7 C           4.9647   -1.9403   -1.8370 C.ar    1  UNL1        0.1669
      8 C           4.2844   -1.3416   -0.7978 C.ar    1  UNL1       -0.0059
      9 O           6.1170   -2.6537   -1.7217 O.3     1  UNL1       -0.4526
     10 C           6.3260   -3.0575   -3.0921 C.3     1  UNL1        0.2332
     11 O           5.3384   -2.5285   -4.0011 O.3     1  UNL1       -0.4526
     12 H           2.7523   -0.0945    0.9839 H       1  UNL1        0.1081
     13 H           1.7237   -0.0527   -2.6765 H       1  UNL1        0.0626
     14 H           3.0247   -1.1520   -4.5057 H       1  UNL1        0.0655
     15 H           4.6586   -1.4114    0.2168 H       1  UNL1        0.0662
     16 H           6.2954   -4.1522   -3.1421 H       1  UNL1        0.1166
     17 H           7.3177   -2.7179   -3.4115 H       1  UNL1        0.1166
@<TRIPOS>BOND
     1     1     2    2
     2     2     3    1
     3     3     4   ar
     4     4     5   ar
     5     5     6   ar
     6     6     7   ar
     7     7     8   ar
     8     3     8   ar
     9     7     9    1
    10     9    10    1
    11    10    11    1
    12     6    11    1
    13     2    12    1
    14     4    13    1
    15     5    14    1
    16     8    15    1
    17    10    16    1
    18    10    17    1
