@<TRIPOS>MOLECULE
*****
 14 15 0 0 0
SMALL
GASTEIGER

@<TRIPOS>ATOM
      1 C           2.1935    0.7381   -0.0070 C.ar    1  UNL1       -0.0596
      2 C           2.2310   -0.6601   -0.0079 C.ar    1  UNL1       -0.0596
      3 C           1.0562   -1.4220   -0.0045 C.ar    1  UNL1       -0.0347
      4 C          -0.1431   -0.7087   -0.0009 C.ar    1  UNL1        0.0858
      5 N          -1.4568   -1.0817    0.0032 N.ar    1  UNL1       -0.2571
      6 N          -2.2816   -0.0217    0.0056 N.ar    1  UNL1       -0.0673
      7 N          -1.5251    1.0696    0.0031 N.ar    1  UNL1       -0.1297
      8 C          -0.2126    0.6779   -0.0007 C.ar    1  UNL1        0.1125
      9 C           0.9724    1.4260   -0.0039 C.ar    1  UNL1       -0.0324
     10 H           3.1241    1.3016   -0.0085 H       1  UNL1        0.0618
     11 H           3.1945   -1.1671   -0.0110 H       1  UNL1        0.0618
     12 H           1.0852   -2.5060   -0.0043 H       1  UNL1        0.0639
     13 H          -1.8572   -2.0113    0.0047 H       1  UNL1        0.1907
     14 H           0.9375    2.5099   -0.0035 H       1  UNL1        0.0640
@<TRIPOS>BOND
     1     1     2   ar
     2     2     3   ar
     3     3     4   ar
     4     4     5   ar
     5     5     6   ar
     6     6     7   ar
     7     7     8   ar
     8     4     8   ar
     9     8     9   ar
    10     1     9   ar
    11     1    10    1
    12     2    11    1
    13     3    12    1
    14     5    13    1
    15     9    14    1
