@<TRIPOS>MOLECULE
*****
 14 15 0 0 0
SMALL
GASTEIGER

@<TRIPOS>ATOM
      1 O           1.8950    1.6702    0.0290 O.2     1  UNL1       -0.2655
      2 C           1.2670    0.6189    0.0229 C.ar    1  UNL1        0.2770
      3 N           1.8697   -0.6148    0.0294 N.ar    1  UNL1       -0.3116
      4 C           1.1510   -1.7905    0.0107 C.ar    1  UNL1        0.0985
      5 N          -0.1384   -1.9100   -0.0089 N.ar    1  UNL1       -0.2163
      6 C          -0.8092   -0.6843   -0.0068 C.ar    1  UNL1        0.1844
      7 N          -2.1583   -0.4926   -0.0159 N.ar    1  UNL1       -0.2164
      8 C          -2.3142    0.8155   -0.0052 C.ar    1  UNL1        0.0963
      9 N          -1.1111    1.4708    0.0088 N.ar    1  UNL1       -0.3389
     10 C          -0.1442    0.5103    0.0084 C.ar    1  UNL1        0.1501
     11 H           2.8784   -0.6238    0.0426 H       1  UNL1        0.1698
     12 H           1.7927   -2.6864    0.0132 H       1  UNL1        0.1028
     13 H          -3.2610    1.3396   -0.0059 H       1  UNL1        0.1027
     14 H          -0.9644    2.4718    0.0209 H       1  UNL1        0.1670
@<TRIPOS>BOND
     1     1     2    2
     2     2     3   ar
     3     3     4   ar
     4     4     5   ar
     5     5     6   ar
     6     6     7   ar
     7     7     8   ar
     8     8     9   ar
     9     9    10   ar
    10     2    10   ar
    11     6    10   ar
    12     3    11    1
    13     4    12    1
    14     8    13    1
    15     9    14    1
