@<TRIPOS>MOLECULE
*****
   37    39     1     0     0
SMALL
bcc


@<TRIPOS>ATOM
      1 C            3.5300    -0.3520    -1.4670 c3         1 UNL      -0.107100
      2 C1           3.5430    -0.2500     0.0570 c3         1 UNL      -0.075400
      3 C2           3.0510    -1.5060     0.8470 c3         1 UNL      -0.114800
      4 C3           3.0740    -1.2980     2.3870 c2         1 UNL      -0.136400
      5 C4           3.3430    -0.1220     3.0010 c2         1 UNL      -0.106200
      6 C5           3.3300     0.0490     4.5020 c3         1 UNL      -0.049200
      7 C6           3.0350    -1.2500     5.2800 c3         1 UNL      -0.070700
      8 C7           1.5440    -1.6180     5.2390 c3         1 UNL      -0.077400
      9 C8           1.3420    -2.3370     3.9010 c3         1 UNL      -0.081400
     10 C9           2.7530    -2.4920     3.2940 c3         1 UNL      -0.037500
     11 C10          3.6500    -2.4420     4.5450 c3         1 UNL      -0.076400
     12 C11          3.9910    -2.6590     0.4690 c          1 UNL       0.714500
     13 O            5.1220    -2.8040     0.9330 o          1 UNL      -0.586000
     14 N            3.5500    -3.5190    -0.5000 ns         1 UNL      -0.595500
     15 C12          2.2790    -3.6270    -0.9680 c          1 UNL       0.817500
     16 O1           1.9760    -4.4410    -1.8330 o          1 UNL      -0.621500
     17 N1           1.3570    -2.7930    -0.4230 ns         1 UNL      -0.595500
     18 C13          1.6000    -1.7500     0.4290 c          1 UNL       0.714500
     19 O2           0.6670    -1.0180     0.7500 o          1 UNL      -0.586000
     20 H            3.8270     0.6110    -1.8970 hc         1 UNL       0.045033
     21 H1           2.5340    -0.5860    -1.8520 hc         1 UNL       0.045033
     22 H2           4.2370    -1.1030    -1.8300 hc         1 UNL       0.045033
     23 H3           2.9180     0.6140     0.3170 hc         1 UNL       0.075700
     24 H4           4.5710    -0.0060     0.3600 hc         1 UNL       0.075700
     25 H5           3.5830     0.7770     2.4430 ha         1 UNL       0.130000
     26 H6           2.5970     0.8210     4.7630 hc         1 UNL       0.057200
     27 H7           4.3140     0.4290     4.8030 hc         1 UNL       0.057200
     28 H8           3.3900    -1.1550     6.3110 hc         1 UNL       0.060700
     29 H9           0.8880    -0.7480     5.3530 hc         1 UNL       0.045700
     30 H10          1.3150    -2.3080     6.0630 hc         1 UNL       0.045700
     31 H11          0.6590    -1.7720     3.2590 hc         1 UNL       0.053700
     32 H12          0.8880    -3.3180     4.0770 hc         1 UNL       0.053700
     33 H13          2.8680    -3.4450     2.7690 hc         1 UNL       0.057700
     34 H14          4.7130    -2.3010     4.3170 hc         1 UNL       0.054700
     35 H15          3.5460    -3.3580     5.1390 hc         1 UNL       0.054700
     36 H16          4.2050    -4.2160    -0.8270 hn         1 UNL       0.356500
     37 H17          0.4070    -2.8890    -0.7540 hn         1 UNL       0.356500
@<TRIPOS>BOND
     1     1     2 1   
     2     2     3 1   
     3     3     4 1   
     4     4     5 2   
     5     5     6 1   
     6     6     7 1   
     7     7     8 1   
     8     8     9 1   
     9     9    10 1   
    10     4    10 1   
    11    10    11 1   
    12     7    11 1   
    13     3    12 1   
    14    12    13 2   
    15    12    14 1   
    16    14    15 1   
    17    15    16 2   
    18    15    17 1   
    19    17    18 1   
    20     3    18 1   
    21    18    19 2   
    22     1    20 1   
    23     1    21 1   
    24     1    22 1   
    25     2    23 1   
    26     2    24 1   
    27     5    25 1   
    28     6    26 1   
    29     6    27 1   
    30     7    28 1   
    31     8    29 1   
    32     8    30 1   
    33     9    31 1   
    34     9    32 1   
    35    10    33 1   
    36    11    34 1   
    37    11    35 1   
    38    14    36 1   
    39    17    37 1   
@<TRIPOS>SUBSTRUCTURE
     1 UNL         1 TEMP              0 ****  ****    0 ROOT
