@<TRIPOS>MOLECULE
*****
   59    61     1     0     0
SMALL
bcc


@<TRIPOS>ATOM
      1 N            1.0690     1.5290    -1.3090 n1         1 UNL      -0.339800
      2 C            2.1390     1.0250    -0.8740 c1         1 UNL       0.177700
      3 C1           3.4300     0.4180    -0.3490 c3         1 UNL       0.265500
      4 O            4.3390    -0.0420    -1.3670 os         1 UNL      -0.439600
      5 C2           3.7810    -1.1140    -2.1390 c3         1 UNL       0.286900
      6 O1           3.3520    -2.1950    -1.3030 os         1 UNL      -0.432600
      7 C3           4.4320    -2.8650    -0.6210 c3         1 UNL       0.106100
      8 C4           3.8290    -3.8460     0.3980 c3         1 UNL       0.140400
      9 O2           3.0540    -4.8340    -0.2760 os         1 UNL      -0.455600
     10 C5           2.4100    -5.7520     0.6170 c3         1 UNL       0.295900
     11 O3           3.3590    -6.4980     1.3830 os         1 UNL      -0.442600
     12 C6           4.2870    -7.2350     0.5610 c3         1 UNL       0.057100
     13 C7           5.3450    -7.8570     1.4840 c3         1 UNL       0.127400
     14 O4           6.0610    -6.8390     2.1900 oh         1 UNL      -0.590800
     15 C8           3.5250    -8.2730    -0.2760 c3         1 UNL       0.081100
     16 O5           2.8840    -9.2550     0.5550 oh         1 UNL      -0.595800
     17 C9           2.4460    -7.5620    -1.1140 c3         1 UNL       0.086100
     18 O6           1.6710    -8.5200    -1.8440 oh         1 UNL      -0.574800
     19 C10          1.5310    -6.7120    -0.2110 c3         1 UNL       0.098100
     20 O7           0.5530    -5.9860    -0.9670 oh         1 UNL      -0.569800
     21 C11          5.3370    -3.5150    -1.6760 c3         1 UNL       0.087100
     22 O8           4.6040    -4.4070    -2.5450 oh         1 UNL      -0.605800
     23 C12          5.9300    -2.3980    -2.5480 c3         1 UNL       0.089100
     24 O9           6.7920    -2.9650    -3.5340 oh         1 UNL      -0.573800
     25 C13          4.8030    -1.5790    -3.2030 c3         1 UNL       0.100100
     26 O10          5.3240    -0.4610    -3.9280 oh         1 UNL      -0.565800
     27 C14          4.1410     1.3260     0.6340 ca         1 UNL      -0.103300
     28 C15          3.7940     1.2840     1.9970 ca         1 UNL      -0.102500
     29 C16          4.4980     2.0410     2.9320 ca         1 UNL      -0.131500
     30 C17          5.5410     2.8660     2.5110 ca         1 UNL      -0.114000
     31 C18          5.8560     2.9570     1.1570 ca         1 UNL      -0.131500
     32 C19          5.1540     2.1990     0.2160 ca         1 UNL      -0.102500
     33 H            3.1310    -0.4570     0.2420 h1         1 UNL       0.088700
     34 H1           2.9040    -0.7290    -2.6680 h2         1 UNL       0.102700
     35 H2           5.0110    -2.1300    -0.0490 h1         1 UNL       0.077700
     36 H3           3.1840    -3.2960     1.0940 h1         1 UNL       0.058700
     37 H4           4.6360    -4.3210     0.9650 h1         1 UNL       0.058700
     38 H5           1.7710    -5.1870     1.3060 h2         1 UNL       0.091700
     39 H6           4.8020    -6.5310    -0.1020 h1         1 UNL       0.098700
     40 H7           6.0720    -8.4410     0.9110 h1         1 UNL       0.069700
     41 H8           4.8860    -8.5020     2.2400 h1         1 UNL       0.069700
     42 H9           6.4340    -6.2240     1.5390 ho         1 UNL       0.401000
     43 H10          4.2060    -8.8220    -0.9340 h1         1 UNL       0.096700
     44 H11          2.6140    -8.8200     1.3880 ho         1 UNL       0.410000
     45 H12          2.9230    -6.9220    -1.8650 h1         1 UNL       0.094700
     46 H13          1.5290    -9.2760    -1.2400 ho         1 UNL       0.415000
     47 H14          0.9710    -7.3740     0.4600 h1         1 UNL       0.088700
     48 H15          0.8490    -5.9740    -1.8940 ho         1 UNL       0.417000
     49 H16          6.1330    -4.1080    -1.2180 h1         1 UNL       0.097700
     50 H17          3.6650    -4.1400    -2.4980 ho         1 UNL       0.425000
     51 H18          6.5590    -1.7400    -1.9320 h1         1 UNL       0.092700
     52 H19          6.2810    -3.6850    -3.9670 ho         1 UNL       0.416000
     53 H20          4.2870    -2.2120    -3.9390 h1         1 UNL       0.094700
     54 H21          5.8540     0.0660    -3.3030 ho         1 UNL       0.416000
     55 H22          2.9820     0.6520     2.3480 ha         1 UNL       0.140000
     56 H23          4.2410     1.9860     3.9870 ha         1 UNL       0.138000
     57 H24          6.1030     3.4390     3.2390 ha         1 UNL       0.137000
     58 H25          6.6580     3.6130     0.8310 ha         1 UNL       0.138000
     59 H26          5.4140     2.2830    -0.8350 ha         1 UNL       0.140000
@<TRIPOS>BOND
     1     1     2 3   
     2     2     3 1   
     3     3     4 1   
     4     4     5 1   
     5     5     6 1   
     6     6     7 1   
     7     7     8 1   
     8     8     9 1   
     9     9    10 1   
    10    10    11 1   
    11    11    12 1   
    12    12    13 1   
    13    13    14 1   
    14    12    15 1   
    15    15    16 1   
    16    15    17 1   
    17    17    18 1   
    18    17    19 1   
    19    10    19 1   
    20    19    20 1   
    21     7    21 1   
    22    21    22 1   
    23    21    23 1   
    24    23    24 1   
    25    23    25 1   
    26     5    25 1   
    27    25    26 1   
    28     3    27 1   
    29    27    28 ar  
    30    28    29 ar  
    31    29    30 ar  
    32    30    31 ar  
    33    31    32 ar  
    34    27    32 ar  
    35     3    33 1   
    36     5    34 1   
    37     7    35 1   
    38     8    36 1   
    39     8    37 1   
    40    10    38 1   
    41    12    39 1   
    42    13    40 1   
    43    13    41 1   
    44    14    42 1   
    45    15    43 1   
    46    16    44 1   
    47    17    45 1   
    48    18    46 1   
    49    19    47 1   
    50    20    48 1   
    51    21    49 1   
    52    22    50 1   
    53    23    51 1   
    54    24    52 1   
    55    25    53 1   
    56    26    54 1   
    57    28    55 1   
    58    29    56 1   
    59    30    57 1   
    60    31    58 1   
    61    32    59 1   
@<TRIPOS>SUBSTRUCTURE
     1 UNL         1 TEMP              0 ****  ****    0 ROOT
