@<TRIPOS>MOLECULE
*****
   21    23     1     0     0
SMALL
bcc


@<TRIPOS>ATOM
      1 C           -3.5130     0.1700     0.0450 ca         1 UNL      -0.118000
      2 C1          -3.0300     1.4700     0.0280 ca         1 UNL      -0.134000
      3 C2          -1.6530     1.7080    -0.0040 ca         1 UNL      -0.090000
      4 C3          -0.7280     0.6300    -0.0100 cp         1 UNL      -0.052000
      5 C4          -1.2440    -0.6670     0.0060 ca         1 UNL      -0.044100
      6 C5          -2.6330    -0.9120     0.0290 ca         1 UNL      -0.101000
      7 S            0.0050    -1.8410    -0.0030 ss         1 UNL      -0.006800
      8 C6           1.2480    -0.6590     0.0040 ca         1 UNL      -0.044100
      9 C7           2.6370    -0.8970     0.0280 ca         1 UNL      -0.101000
     10 C8           3.5120     0.1920     0.0300 ca         1 UNL      -0.118000
     11 C9           3.0210     1.4870    -0.0000 ca         1 UNL      -0.134000
     12 C10          1.6420     1.7170    -0.0250 ca         1 UNL      -0.090000
     13 C11          0.7240     0.6340    -0.0170 cp         1 UNL      -0.052000
     14 H           -4.5850    -0.0100     0.0730 ha         1 UNL       0.134000
     15 H1          -3.7220     2.3080     0.0420 ha         1 UNL       0.134000
     16 H2          -1.2900     2.7320    -0.0150 ha         1 UNL       0.136000
     17 H3          -3.0130    -1.9290     0.0420 ha         1 UNL       0.139000
     18 H4           3.0230    -1.9110     0.0490 ha         1 UNL       0.139000
     19 H5           4.5850     0.0170     0.0560 ha         1 UNL       0.134000
     20 H6           3.7080     2.3300    -0.0000 ha         1 UNL       0.134000
     21 H7           1.2740     2.7390    -0.0450 ha         1 UNL       0.136000
@<TRIPOS>BOND
     1     1     2 ar  
     2     2     3 ar  
     3     3     4 ar  
     4     4     5 ar  
     5     5     6 ar  
     6     1     6 ar  
     7     5     7 1   
     8     7     8 1   
     9     8     9 ar  
    10     9    10 ar  
    11    10    11 ar  
    12    11    12 ar  
    13    12    13 ar  
    14     8    13 ar  
    15     4    13 1   
    16     1    14 1   
    17     2    15 1   
    18     3    16 1   
    19     6    17 1   
    20     9    18 1   
    21    10    19 1   
    22    11    20 1   
    23    12    21 1   
@<TRIPOS>SUBSTRUCTURE
     1 UNL         1 TEMP              0 ****  ****    0 ROOT
