@<TRIPOS>MOLECULE
*****
 57 59 0 0 0
SMALL
GASTEIGER

@<TRIPOS>ATOM
      1 C           2.9499   -0.4292   -1.0041 C.3     1  UNL1       -0.0605
      2 C           2.5552   -0.3051    0.4757 C.3     1  UNL1       -0.0179
      3 C           2.8199   -1.6294    1.1966 C.3     1  UNL1       -0.0605
      4 C           3.1974    0.9450    1.1392 C.3     1  UNL1        0.1209
      5 N           2.6894    1.1773    2.5188 N.pl3   1  UNL1       -0.3301
      6 C           1.5280    1.9144    2.8075 C.ar    1  UNL1        0.0463
      7 C           0.4246    1.9682    1.9501 C.ar    1  UNL1       -0.0389
      8 C          -0.7909    2.5452    2.3486 C.ar    1  UNL1       -0.0483
      9 C          -0.9485    3.0909    3.6278 C.ar    1  UNL1        0.0563
     10 C          -2.2752    3.6494    4.0830 C.3     1  UNL1        0.4175
     11 F          -3.2371    3.6171    3.1188 F       1  UNL1       -0.1659
     12 F          -2.7890    2.9665    5.1430 F       1  UNL1       -0.1659
     13 F          -2.1879    4.9481    4.4797 F       1  UNL1       -0.1659
     14 C           0.1545    3.0846    4.4879 C.ar    1  UNL1       -0.0300
     15 C           1.3652    2.5055    4.0843 C.ar    1  UNL1        0.0623
     16 CL          2.6969    2.5658    5.1946 Cl      1  UNL1       -0.0816
     17 C           4.7482    0.8608    1.1793 C.2     1  UNL1        0.3294
     18 O           5.4498    0.0060    0.6624 O.2     1  UNL1       -0.2487
     19 O           5.2506    1.9188    1.8811 O.3     1  UNL1       -0.4401
     20 C           6.6914    1.9396    1.9860 C.3     1  UNL1        0.2129
     21 C           7.3314    2.3625    0.7114 C.1     1  UNL1        0.1123
     22 N           7.8046    2.7064   -0.2923 N.1     1  UNL1       -0.1923
     23 C           6.9963    2.9065    3.1248 C.ar    1  UNL1        0.0103
     24 C           6.6852    4.2697    2.9991 C.ar    1  UNL1       -0.0538
     25 C           6.9966    5.1642    4.0198 C.ar    1  UNL1       -0.0579
     26 C           7.5944    4.7065    5.1901 C.ar    1  UNL1       -0.0193
     27 C           7.8125    3.3363    5.3779 C.ar    1  UNL1        0.1288
     28 O           8.3162    2.7884    6.5392 O.3     1  UNL1       -0.4560
     29 C           8.0188    3.3770    7.7523 C.ar    1  UNL1        0.1284
     30 C           6.8093    4.0138    8.0438 C.ar    1  UNL1       -0.0193
     31 C           6.6250    4.6433    9.2758 C.ar    1  UNL1       -0.0583
     32 C           7.6210    4.5780   10.2476 C.ar    1  UNL1       -0.0615
     33 C           8.7967    3.8720    9.9923 C.ar    1  UNL1       -0.0583
     34 C           8.9960    3.2723    8.7464 C.ar    1  UNL1       -0.0193
     35 C           7.5551    2.4462    4.3296 C.ar    1  UNL1       -0.0116
     36 H           2.2340   -1.0668   -1.5342 H       1  UNL1        0.0233
     37 H           3.9378   -0.8826   -1.1304 H       1  UNL1        0.0233
     38 H           2.9552    0.5466   -1.5005 H       1  UNL1        0.0233
     39 H           1.4691   -0.1774    0.4844 H       1  UNL1        0.0319
     40 H           3.8685   -1.9348    1.1328 H       1  UNL1        0.0233
     41 H           2.2242   -2.4278    0.7376 H       1  UNL1        0.0233
     42 H           2.5389   -1.5765    2.2523 H       1  UNL1        0.0233
     43 H           2.9746    1.8288    0.5257 H       1  UNL1        0.0616
     44 H           3.4373    1.4838    3.1499 H       1  UNL1        0.1469
     45 H           0.4637    1.5453    0.9538 H       1  UNL1        0.0637
     46 H          -1.6276    2.5403    1.6496 H       1  UNL1        0.0624
     47 H           0.0654    3.5180    5.4850 H       1  UNL1        0.0638
     48 H           7.0523    0.9416    2.2674 H       1  UNL1        0.0948
     49 H           6.2081    4.6518    2.0972 H       1  UNL1        0.0622
     50 H           6.7691    6.2216    3.9074 H       1  UNL1        0.0619
     51 H           7.8543    5.4222    5.9615 H       1  UNL1        0.0654
     52 H           6.0067    4.0516    7.3123 H       1  UNL1        0.0654
     53 H           5.7034    5.1852    9.4742 H       1  UNL1        0.0619
     54 H           7.4765    5.0680   11.2073 H       1  UNL1        0.0618
     55 H           9.5606    3.7956   10.7615 H       1  UNL1        0.0619
     56 H           9.9183    2.7320    8.5494 H       1  UNL1        0.0654
     57 H           7.7854    1.3916    4.4714 H       1  UNL1        0.0658
@<TRIPOS>BOND
     1     1     2    1
     2     2     3    1
     3     2     4    1
     4     4     5    1
     5     5     6    1
     6     6     7   ar
     7     7     8   ar
     8     8     9   ar
     9     9    10    1
    10    10    11    1
    11    10    12    1
    12    10    13    1
    13     9    14   ar
    14    14    15   ar
    15     6    15   ar
    16    15    16    1
    17     4    17    1
    18    17    18    2
    19    17    19    1
    20    19    20    1
    21    20    21    1
    22    21    22    3
    23    20    23    1
    24    23    24   ar
    25    24    25   ar
    26    25    26   ar
    27    26    27   ar
    28    27    28    1
    29    28    29    1
    30    29    30   ar
    31    30    31   ar
    32    31    32   ar
    33    32    33   ar
    34    33    34   ar
    35    29    34   ar
    36    27    35   ar
    37    23    35   ar
    38     1    36    1
    39     1    37    1
    40     1    38    1
    41     2    39    1
    42     3    40    1
    43     3    41    1
    44     3    42    1
    45     4    43    1
    46     5    44    1
    47     7    45    1
    48     8    46    1
    49    14    47    1
    50    20    48    1
    51    24    49    1
    52    25    50    1
    53    26    51    1
    54    30    52    1
    55    31    53    1
    56    32    54    1
    57    33    55    1
    58    34    56    1
    59    35    57    1
