@<TRIPOS>MOLECULE
*****
   40    41     1     0     0
SMALL
bcc


@<TRIPOS>ATOM
      1 C            2.2860    -1.4250     0.5520 c3         1 UNL      -0.087100
      2 C1           2.4620    -0.0380    -0.0490 c3         1 UNL      -0.045200
      3 C2           2.9320     1.0400     0.9190 ce         1 UNL      -0.052400
      4 C3           2.1240     1.9390     1.5400 cf         1 UNL      -0.052400
      5 C4           2.5870     3.2160     2.2190 c3         1 UNL      -0.045200
      6 C5           2.7550     3.1280     3.7280 c3         1 UNL      -0.087100
      7 C6           0.6550     1.7830     1.4790 ca         1 UNL      -0.084800
      8 C7          -0.0070     0.9950     2.4340 ca         1 UNL      -0.084500
      9 C8          -1.3850     0.7830     2.3450 ca         1 UNL      -0.186500
     10 C9          -2.0980     1.3590     1.3000 ca         1 UNL       0.123100
     11 O           -3.4380     1.1510     1.1540 oh         1 UNL      -0.498100
     12 C10         -1.4620     2.1600     0.3570 ca         1 UNL      -0.186500
     13 C11         -0.0850     2.3750     0.4490 ca         1 UNL      -0.084500
     14 C12          4.4040     1.1080     1.0360 ca         1 UNL      -0.084800
     15 C13          5.0580     0.4190     2.0670 ca         1 UNL      -0.084500
     16 C14          6.4540     0.3900     2.1260 ca         1 UNL      -0.186500
     17 C15          7.1920     1.0600     1.1550 ca         1 UNL       0.123100
     18 O1           8.5550     1.0270     1.1480 oh         1 UNL      -0.498100
     19 C16          6.5570     1.7730     0.1440 ca         1 UNL      -0.186500
     20 C17          5.1640     1.7980     0.0830 ca         1 UNL      -0.084500
     21 H            1.8050    -2.0810    -0.1820 hc         1 UNL       0.034700
     22 H1           1.6580    -1.4060     1.4470 hc         1 UNL       0.034700
     23 H2           3.2490    -1.8740     0.8110 hc         1 UNL       0.034700
     24 H3           1.5190     0.2580    -0.5220 hc         1 UNL       0.051200
     25 H4           3.1690    -0.1130    -0.8850 hc         1 UNL       0.051200
     26 H5           1.8810     4.0270     1.9960 hc         1 UNL       0.051200
     27 H6           3.5350     3.5530     1.7830 hc         1 UNL       0.051200
     28 H7           1.7880     3.0400     4.2330 hc         1 UNL       0.034700
     29 H8           3.2350     4.0420     4.0960 hc         1 UNL       0.034700
     30 H9           3.3810     2.2810     4.0210 hc         1 UNL       0.034700
     31 H10          0.5540     0.5330     3.2430 ha         1 UNL       0.138000
     32 H11         -1.8770     0.1650     3.0910 ha         1 UNL       0.142500
     33 H12         -3.7190     0.4820     1.8000 ho         1 UNL       0.419000
     34 H13         -2.0330     2.6060    -0.4500 ha         1 UNL       0.142500
     35 H14          0.4120     2.9840    -0.3020 ha         1 UNL       0.138000
     36 H15          4.4820    -0.1190     2.8160 ha         1 UNL       0.138000
     37 H16          6.9420    -0.1640     2.9210 ha         1 UNL       0.142500
     38 H17          8.8530     0.4100     1.8370 ho         1 UNL       0.419000
     39 H18          7.1460     2.3040    -0.6020 ha         1 UNL       0.142500
     40 H19          4.6720     2.3430    -0.7190 ha         1 UNL       0.138000
@<TRIPOS>BOND
     1     1     2 1   
     2     2     3 1   
     3     3     4 2   
     4     4     5 1   
     5     5     6 1   
     6     4     7 1   
     7     7     8 ar  
     8     8     9 ar  
     9     9    10 ar  
    10    10    11 1   
    11    10    12 ar  
    12    12    13 ar  
    13     7    13 ar  
    14     3    14 1   
    15    14    15 ar  
    16    15    16 ar  
    17    16    17 ar  
    18    17    18 1   
    19    17    19 ar  
    20    19    20 ar  
    21    14    20 ar  
    22     1    21 1   
    23     1    22 1   
    24     1    23 1   
    25     2    24 1   
    26     2    25 1   
    27     5    26 1   
    28     5    27 1   
    29     6    28 1   
    30     6    29 1   
    31     6    30 1   
    32     8    31 1   
    33     9    32 1   
    34    11    33 1   
    35    12    34 1   
    36    13    35 1   
    37    15    36 1   
    38    16    37 1   
    39    18    38 1   
    40    19    39 1   
    41    20    40 1   
@<TRIPOS>SUBSTRUCTURE
     1 UNL         1 TEMP              0 ****  ****    0 ROOT
