@<TRIPOS>MOLECULE
*****
 29 30 0 0 0
SMALL
GASTEIGER

@<TRIPOS>ATOM
      1 C           5.1061    1.5621   -1.5081 C.3     1  UNL1       -0.0057
      2 C           4.2173    0.8112   -0.5490 C.2     1  UNL1        0.1130
      3 C           3.0818    1.2651    0.0284 C.2     1  UNL1        0.1072
      4 C           2.5581    2.6859   -0.1531 C.2     1  UNL1        0.2578
      5 O           3.2744    3.5871   -0.5712 O.2     1  UNL1       -0.2692
      6 N           1.2438    2.8683    0.2535 N.am    1  UNL1       -0.2810
      7 C           0.4879    4.0566    0.1927 C.ar    1  UNL1        0.0337
      8 C           0.8499    5.1675   -0.5723 C.ar    1  UNL1       -0.0405
      9 C           0.0688    6.3285   -0.5587 C.ar    1  UNL1       -0.0600
     10 C          -1.0822    6.3864    0.2217 C.ar    1  UNL1       -0.0616
     11 C          -1.4663    5.2769    0.9688 C.ar    1  UNL1       -0.0600
     12 C          -0.6930    4.1131    0.9437 C.ar    1  UNL1       -0.0405
     13 S           2.0614    0.1668    0.9322 S.3     1  UNL1       -0.1136
     14 C           3.3327   -0.8526    1.6973 C.3     1  UNL1        0.0328
     15 C           4.5115   -1.1987    0.7992 C.3     1  UNL1        0.0984
     16 O           4.6793   -0.4861   -0.4216 O.2     1  UNL1       -0.4944
     17 H           4.8228    2.5883   -1.7258 H       1  UNL1        0.0308
     18 H           5.1166    1.0369   -2.4702 H       1  UNL1        0.0308
     19 H           6.1328    1.5825   -1.1265 H       1  UNL1        0.0308
     20 H           0.8233    2.0758    0.7261 H       1  UNL1        0.1551
     21 H           1.7314    5.1573   -1.2062 H       1  UNL1        0.0636
     22 H           0.3681    7.1851   -1.1568 H       1  UNL1        0.0618
     23 H          -1.6776    7.2969    0.2449 H       1  UNL1        0.0618
     24 H          -2.3651    5.3199    1.5790 H       1  UNL1        0.0618
     25 H          -1.0112    3.2626    1.5429 H       1  UNL1        0.0636
     26 H           2.8664   -1.7803    2.0503 H       1  UNL1        0.0413
     27 H           3.6943   -0.3434    2.5975 H       1  UNL1        0.0413
     28 H           4.4508   -2.2581    0.5236 H       1  UNL1        0.0705
     29 H           5.4407   -1.1026    1.3753 H       1  UNL1        0.0705
@<TRIPOS>BOND
     1     1     2    1
     2     2     3    2
     3     3     4    1
     4     4     5    2
     5     4     6   am
     6     6     7    1
     7     7     8   ar
     8     8     9   ar
     9     9    10   ar
    10    10    11   ar
    11    11    12   ar
    12     7    12   ar
    13     3    13    1
    14    13    14    1
    15    14    15    1
    16    15    16    1
    17     2    16    1
    18     1    17    1
    19     1    18    1
    20     1    19    1
    21     6    20    1
    22     8    21    1
    23     9    22    1
    24    10    23    1
    25    11    24    1
    26    12    25    1
    27    14    26    1
    28    14    27    1
    29    15    28    1
    30    15    29    1
