@<TRIPOS>MOLECULE
*****
 35 37 0 0 0
SMALL
GASTEIGER

@<TRIPOS>ATOM
      1 C           3.1683    1.6716    0.7277 C.3     1  UNL1        0.0788
      2 O           2.4939    0.7401   -0.1128 O.3     1  UNL1       -0.4951
      3 C           3.2406    0.1570   -1.0996 C.ar    1  UNL1        0.1201
      4 C           4.6032    0.3397   -1.2990 C.ar    1  UNL1       -0.0196
      5 C           5.2575   -0.2685   -2.3839 C.ar    1  UNL1       -0.0521
      6 C           4.5772   -1.1017   -3.2942 C.ar    1  UNL1       -0.0111
      7 C           5.2807   -1.7695   -4.5005 C.3     1  UNL1        0.1214
      8 O           6.6776   -1.4341   -4.5478 O.3     1  UNL1       -0.3789
      9 C           5.2071   -3.2895   -4.4327 C.ar    1  UNL1        0.0247
     10 C           4.1398   -4.0129   -4.9438 C.ar    1  UNL1        0.0370
     11 N           4.0524   -5.3605   -4.9335 N.ar    1  UNL1       -0.2433
     12 C           5.0813   -6.0024   -4.3770 C.ar    1  UNL1        0.1159
     13 N           6.1639   -5.4323   -3.8252 N.ar    1  UNL1       -0.2433
     14 C           6.1913   -4.0799   -3.8697 C.ar    1  UNL1        0.0370
     15 C           4.7778   -1.3319   -5.8803 C.3     1  UNL1       -0.0036
     16 C           4.7421    0.1166   -6.3197 C.3     1  UNL1       -0.0466
     17 C           3.4578   -0.6575   -6.2040 C.3     1  UNL1       -0.0466
     18 C           3.2102   -1.3204   -3.0284 C.ar    1  UNL1       -0.0521
     19 C           2.5519   -0.6902   -1.9606 C.ar    1  UNL1       -0.0196
     20 H           2.4425    2.0772    1.4388 H       1  UNL1        0.0660
     21 H           3.5706    2.5103    0.1490 H       1  UNL1        0.0660
     22 H           3.9571    1.1772    1.3043 H       1  UNL1        0.0660
     23 H           5.1991    0.9619   -0.6362 H       1  UNL1        0.0654
     24 H           6.3176   -0.0507   -2.4781 H       1  UNL1        0.0622
     25 H           7.0191   -1.4028   -3.6448 H       1  UNL1        0.2111
     26 H           3.2965   -3.5225   -5.4227 H       1  UNL1        0.0834
     27 H           5.0449   -7.0863   -4.3740 H       1  UNL1        0.1047
     28 H           7.0895   -3.6504   -3.4321 H       1  UNL1        0.0834
     29 H           5.1858   -1.9939   -6.6447 H       1  UNL1        0.0335
     30 H           5.1082    0.3385   -7.3181 H       1  UNL1        0.0269
     31 H           4.9450    0.8892   -5.5922 H       1  UNL1        0.0269
     32 H           2.9592   -0.9647   -7.1180 H       1  UNL1        0.0269
     33 H           2.7735   -0.3313   -5.4343 H       1  UNL1        0.0269
     34 H           2.6156   -1.9707   -3.6656 H       1  UNL1        0.0622
     35 H           1.4885   -0.8616   -1.8099 H       1  UNL1        0.0654
@<TRIPOS>BOND
     1     1     2    1
     2     2     3    1
     3     3     4   ar
     4     4     5   ar
     5     5     6   ar
     6     6     7    1
     7     7     8    1
     8     7     9    1
     9     9    10   ar
    10    10    11   ar
    11    11    12   ar
    12    12    13   ar
    13    13    14   ar
    14     9    14   ar
    15     7    15    1
    16    15    16    1
    17    16    17    1
    18    15    17    1
    19     6    18   ar
    20    18    19   ar
    21     3    19   ar
    22     1    20    1
    23     1    21    1
    24     1    22    1
    25     4    23    1
    26     5    24    1
    27     8    25    1
    28    10    26    1
    29    12    27    1
    30    14    28    1
    31    15    29    1
    32    16    30    1
    33    16    31    1
    34    17    32    1
    35    17    33    1
    36    18    34    1
    37    19    35    1
