@<TRIPOS>MOLECULE
*****
 10 10 0 0 0
SMALL
GASTEIGER

@<TRIPOS>ATOM
      1 N           2.1241    0.0728   -0.1636 N.pl3   1  UNL1       -0.3375
      2 C           0.8042   -0.1602   -0.0968 C.ar    1  UNL1        0.1554
      3 N           0.2913   -1.3648   -0.0510 N.ar    1  UNL1       -0.2335
      4 C          -1.0862   -1.2864    0.0093 C.ar    1  UNL1        0.0368
      5 C          -1.6084   -0.0119    0.0236 C.ar    1  UNL1       -0.0030
      6 S          -0.3314    1.1285   -0.0413 S.2     1  UNL1       -0.0611
      7 H           2.7178   -0.7113    0.0817 H       1  UNL1        0.1442
      8 H           2.4649    0.9729    0.1481 H       1  UNL1        0.1442
      9 H          -1.6667   -2.2000    0.0415 H       1  UNL1        0.0835
     10 H          -2.6435    0.2933    0.0667 H       1  UNL1        0.0709
@<TRIPOS>BOND
     1     1     2    1
     2     2     3   ar
     3     3     4   ar
     4     4     5   ar
     5     5     6   ar
     6     2     6   ar
     7     1     7    1
     8     1     8    1
     9     4     9    1
    10     5    10    1
