@<TRIPOS>MOLECULE
*****
 59 61 0 0 0
SMALL
GASTEIGER

@<TRIPOS>ATOM
      1 N           1.0686    1.5292   -1.3088 N.1     1  UNL1       -0.1935
      2 C           2.1395    1.0254   -0.8737 C.1     1  UNL1        0.0992
      3 C           3.4305    0.4181   -0.3493 C.3     1  UNL1        0.1722
      4 O           4.3389   -0.0420   -1.3666 O.3     1  UNL1       -0.3262
      5 C           3.7808   -1.1142   -2.1387 C.3     1  UNL1        0.1899
      6 O           3.3518   -2.1948   -1.3030 O.3     1  UNL1       -0.3405
      7 C           4.4318   -2.8652   -0.6213 C.3     1  UNL1        0.1134
      8 C           3.8286   -3.8459    0.3977 C.3     1  UNL1        0.0796
      9 O           3.0538   -4.8342   -0.2762 O.3     1  UNL1       -0.3460
     10 C           2.4099   -5.7519    0.6170 C.3     1  UNL1        0.1880
     11 O           3.3593   -6.4981    1.3835 O.3     1  UNL1       -0.3405
     12 C           4.2874   -7.2352    0.5615 C.3     1  UNL1        0.1130
     13 C           5.3445   -7.8570    1.4835 C.3     1  UNL1        0.0730
     14 O           6.0608   -6.8390    2.1904 O.3     1  UNL1       -0.3924
     15 C           3.5253   -8.2732   -0.2755 C.3     1  UNL1        0.1119
     16 O           2.8839   -9.2548    0.5551 O.3     1  UNL1       -0.3865
     17 C           2.4462   -7.5621   -1.1136 C.3     1  UNL1        0.1141
     18 O           1.6710   -8.5200   -1.8436 O.3     1  UNL1       -0.3864
     19 C           1.5311   -6.7122   -0.2112 C.3     1  UNL1        0.1341
     20 O           0.5532   -5.9856   -0.9666 O.3     1  UNL1       -0.3841
     21 C           5.3366   -3.5146   -1.6764 C.3     1  UNL1        0.1119
     22 O           4.6040   -4.4066   -2.5448 O.3     1  UNL1       -0.3865
     23 C           5.9297   -2.3984   -2.5477 C.3     1  UNL1        0.1141
     24 O           6.7924   -2.9652   -3.5342 O.3     1  UNL1       -0.3864
     25 C           4.8035   -1.5794   -3.2028 C.3     1  UNL1        0.1342
     26 O           5.3240   -0.4610   -3.9280 O.3     1  UNL1       -0.3841
     27 C           4.1407    1.3257    0.6337 C.ar    1  UNL1       -0.0049
     28 C           3.7939    1.2844    1.9966 C.ar    1  UNL1       -0.0551
     29 C           4.4981    2.0406    2.9315 C.ar    1  UNL1       -0.0614
     30 C           5.5413    2.8661    2.5108 C.ar    1  UNL1       -0.0617
     31 C           5.8565    2.9566    1.1574 C.ar    1  UNL1       -0.0614
     32 C           5.1541    2.1994    0.2163 C.ar    1  UNL1       -0.0551
     33 H           3.1311   -0.4569    0.2423 H       1  UNL1        0.0808
     34 H           2.9044   -0.7294   -2.6685 H       1  UNL1        0.0938
     35 H           5.0111   -2.1304   -0.0485 H       1  UNL1        0.0647
     36 H           3.1838   -3.2964    1.0939 H       1  UNL1        0.0587
     37 H           4.6364   -4.3212    0.9646 H       1  UNL1        0.0587
     38 H           1.7710   -5.1867    1.3064 H       1  UNL1        0.0937
     39 H           4.8020   -6.5310   -0.1024 H       1  UNL1        0.0647
     40 H           6.0718   -8.4410    0.9114 H       1  UNL1        0.0584
     41 H           4.8864   -8.5015    2.2396 H       1  UNL1        0.0584
     42 H           6.4345   -6.2241    1.5386 H       1  UNL1        0.2095
     43 H           4.2057   -8.8224   -0.9345 H       1  UNL1        0.0647
     44 H           2.6136   -8.8199    1.3876 H       1  UNL1        0.2100
     45 H           2.9229   -6.9224   -1.8653 H       1  UNL1        0.0648
     46 H           1.5290   -9.2760   -1.2405 H       1  UNL1        0.2100
     47 H           0.9710   -7.3743    0.4598 H       1  UNL1        0.0671
     48 H           0.8493   -5.9740   -1.8943 H       1  UNL1        0.2101
     49 H           6.1326   -4.1084   -1.2184 H       1  UNL1        0.0647
     50 H           3.6650   -4.1404   -2.4979 H       1  UNL1        0.2100
     51 H           6.5590   -1.7399   -1.9323 H       1  UNL1        0.0648
     52 H           6.2806   -3.6849   -3.9669 H       1  UNL1        0.2100
     53 H           4.2875   -2.2119   -3.9387 H       1  UNL1        0.0671
     54 H           5.8536    0.0664   -3.3027 H       1  UNL1        0.2101
     55 H           2.9815    0.6517    2.3478 H       1  UNL1        0.0621
     56 H           4.2411    1.9859    3.9869 H       1  UNL1        0.0618
     57 H           6.1029    3.4395    3.2386 H       1  UNL1        0.0618
     58 H           6.6583    3.6130    0.8307 H       1  UNL1        0.0618
     59 H           5.4143    2.2829   -0.8350 H       1  UNL1        0.0621
@<TRIPOS>BOND
     1     1     2    3
     2     2     3    1
     3     3     4    1
     4     4     5    1
     5     5     6    1
     6     6     7    1
     7     7     8    1
     8     8     9    1
     9     9    10    1
    10    10    11    1
    11    11    12    1
    12    12    13    1
    13    13    14    1
    14    12    15    1
    15    15    16    1
    16    15    17    1
    17    17    18    1
    18    17    19    1
    19    10    19    1
    20    19    20    1
    21     7    21    1
    22    21    22    1
    23    21    23    1
    24    23    24    1
    25    23    25    1
    26     5    25    1
    27    25    26    1
    28     3    27    1
    29    27    28   ar
    30    28    29   ar
    31    29    30   ar
    32    30    31   ar
    33    31    32   ar
    34    27    32   ar
    35     3    33    1
    36     5    34    1
    37     7    35    1
    38     8    36    1
    39     8    37    1
    40    10    38    1
    41    12    39    1
    42    13    40    1
    43    13    41    1
    44    14    42    1
    45    15    43    1
    46    16    44    1
    47    17    45    1
    48    18    46    1
    49    19    47    1
    50    20    48    1
    51    21    49    1
    52    22    50    1
    53    23    51    1
    54    24    52    1
    55    25    53    1
    56    26    54    1
    57    28    55    1
    58    29    56    1
    59    30    57    1
    60    31    58    1
    61    32    59    1
