@<TRIPOS>MOLECULE
*****
 31 32 0 0 0
SMALL
GASTEIGER

@<TRIPOS>ATOM
      1 C           1.0206   -0.1974   -0.1448 C.3     1  UNL1       -0.0065
      2 C           2.4915    0.0649    0.0247 C.2     1  UNL1        0.1027
      3 C           3.1153    1.2534   -0.0893 C.2     1  UNL1        0.0518
      4 C           2.4833    2.6042   -0.3067 C.2     1  UNL1        0.2474
      5 O           3.1117    3.4255   -0.9728 O.2     1  UNL1       -0.2701
      6 N           1.3168    2.8472    0.3782 N.am    1  UNL1       -0.2817
      7 C           0.5935    4.0710    0.4048 C.ar    1  UNL1        0.0337
      8 C           0.9590    5.2104   -0.3224 C.ar    1  UNL1       -0.0405
      9 C           0.2395    6.4049   -0.2024 C.ar    1  UNL1       -0.0600
     10 C          -0.8737    6.4697    0.6270 C.ar    1  UNL1       -0.0616
     11 C          -1.2708    5.3364    1.3328 C.ar    1  UNL1       -0.0600
     12 C          -0.5448    4.1444    1.2197 C.ar    1  UNL1       -0.0405
     13 C           4.6192    1.3491   -0.0119 C.3     1  UNL1       -0.0165
     14 C           5.3778    0.0349    0.0656 C.3     1  UNL1       -0.0144
     15 C           4.5354   -1.2198   -0.0436 C.3     1  UNL1        0.0894
     16 O           3.1640   -1.1051    0.3136 O.2     1  UNL1       -0.4961
     17 H           0.4640    0.6451   -0.5514 H       1  UNL1        0.0308
     18 H           0.5804   -0.4921    0.8109 H       1  UNL1        0.0308
     19 H           0.8772   -1.0279   -0.8520 H       1  UNL1        0.0308
     20 H           0.9605    2.1157    0.9795 H       1  UNL1        0.1551
     21 H           1.8145    5.2169   -0.9872 H       1  UNL1        0.0636
     22 H           0.5582    7.2805   -0.7652 H       1  UNL1        0.0618
     23 H          -1.4259    7.4014    0.7239 H       1  UNL1        0.0618
     24 H          -2.1441    5.3856    1.9788 H       1  UNL1        0.0618
     25 H          -0.8807    3.2812    1.7870 H       1  UNL1        0.0636
     26 H           4.8987    1.9641    0.8542 H       1  UNL1        0.0317
     27 H           4.9903    1.8826   -0.8965 H       1  UNL1        0.0317
     28 H           5.9483    0.0089    1.0024 H       1  UNL1        0.0301
     29 H           6.1465    0.0079   -0.7215 H       1  UNL1        0.0301
     30 H           4.9666   -1.9835    0.6151 H       1  UNL1        0.0696
     31 H           4.5953   -1.6339   -1.0588 H       1  UNL1        0.0696
@<TRIPOS>BOND
     1     1     2    1
     2     2     3    2
     3     3     4    1
     4     4     5    2
     5     4     6   am
     6     6     7    1
     7     7     8   ar
     8     8     9   ar
     9     9    10   ar
    10    10    11   ar
    11    11    12   ar
    12     7    12   ar
    13     3    13    1
    14    13    14    1
    15    14    15    1
    16    15    16    1
    17     2    16    1
    18     1    17    1
    19     1    18    1
    20     1    19    1
    21     6    20    1
    22     8    21    1
    23     9    22    1
    24    10    23    1
    25    11    24    1
    26    12    25    1
    27    13    26    1
    28    13    27    1
    29    14    28    1
    30    14    29    1
    31    15    30    1
    32    15    31    1
