@<TRIPOS>MOLECULE
*****
   26    29     1     0     0
SMALL
bcc


@<TRIPOS>ATOM
      1 C            3.6670     0.7030     0.0260 ca         1 UNL      -0.129000
      2 C1           3.6650    -0.7060     0.0460 ca         1 UNL      -0.129000
      3 C2           2.4670    -1.4280     0.0210 ca         1 UNL      -0.105000
      4 C3           1.2850    -0.7130    -0.0140 cp         1 UNL      -0.033000
      5 C4           1.2860     0.7120    -0.0210 cq         1 UNL      -0.033000
      6 C5           2.4700     1.4250    -0.0100 ca         1 UNL      -0.105000
      7 C6          -0.1070     1.1400    -0.0150 cp         1 UNL      -0.034000
      8 C7          -0.7120     2.3830     0.0080 ca         1 UNL      -0.084000
      9 C8          -2.1180     2.4440     0.0340 ca         1 UNL      -0.137000
     10 C9          -2.9050     1.2710     0.0380 ca         1 UNL      -0.099000
     11 C10         -2.2920     0.0030     0.0180 ca         1 UNL      -0.033000
     12 C11         -2.9080    -1.2640     0.0330 ca         1 UNL      -0.099000
     13 C12         -2.1240    -2.4370     0.0180 ca         1 UNL      -0.137000
     14 C13         -0.7170    -2.3800    -0.0090 ca         1 UNL      -0.084000
     15 C14         -0.1080    -1.1390    -0.0160 cq         1 UNL      -0.034000
     16 C15         -0.9000     0.0020    -0.0090 ca         1 UNL      -0.065000
     17 H            4.6150     1.2360     0.0470 ha         1 UNL       0.132000
     18 H1           4.6120    -1.2400     0.0870 ha         1 UNL       0.132000
     19 H2           2.4730    -2.5110     0.0420 ha         1 UNL       0.135000
     20 H3           2.4770     2.5090    -0.0190 ha         1 UNL       0.135000
     21 H4          -0.1240     3.2950     0.0140 ha         1 UNL       0.136000
     22 H5          -2.6090     3.4140     0.0590 ha         1 UNL       0.132000
     23 H6          -3.9880     1.3540     0.0640 ha         1 UNL       0.134000
     24 H7          -3.9910    -1.3440     0.0650 ha         1 UNL       0.134000
     25 H8          -2.6170    -3.4070     0.0330 ha         1 UNL       0.132000
     26 H9          -0.1310    -3.2930    -0.0190 ha         1 UNL       0.136000
@<TRIPOS>BOND
     1     1     2 ar  
     2     2     3 ar  
     3     3     4 ar  
     4     4     5 2   
     5     5     6 1   
     6     1     6 ar  
     7     5     7 1   
     8     7     8 ar  
     9     8     9 ar  
    10     9    10 ar  
    11    10    11 ar  
    12    11    12 ar  
    13    12    13 ar  
    14    13    14 ar  
    15    14    15 2   
    16     4    15 1   
    17    15    16 1   
    18     7    16 ar  
    19    11    16 ar  
    20     1    17 1   
    21     2    18 1   
    22     3    19 1   
    23     6    20 1   
    24     8    21 1   
    25     9    22 1   
    26    10    23 1   
    27    12    24 1   
    28    13    25 1   
    29    14    26 1   
@<TRIPOS>SUBSTRUCTURE
     1 UNL         1 TEMP              0 ****  ****    0 ROOT
