@<TRIPOS>MOLECULE
*****
 42 45 0 0 0
SMALL
GASTEIGER

@<TRIPOS>ATOM
      1 C           1.0789    0.1614    1.5183 C.3     1  UNL1       -0.0526
      2 C           2.0002   -0.2448    0.3467 C.3     1  UNL1        0.0293
      3 C           1.1170   -0.3912   -0.8969 C.3     1  UNL1       -0.0401
      4 C           1.6747   -1.2606   -2.0078 C.3     1  UNL1       -0.0450
      5 C           2.2336   -2.5871   -1.4728 C.3     1  UNL1       -0.0124
      6 C           2.6381   -3.4414   -2.6539 C.ar    1  UNL1       -0.0406
      7 C           1.6447   -4.1459   -3.3571 C.ar    1  UNL1       -0.0546
      8 C           1.9521   -4.8349   -4.5278 C.ar    1  UNL1       -0.0199
      9 C           3.2602   -4.8294   -4.9914 C.ar    1  UNL1        0.1171
     10 O           3.5994   -5.4592   -6.1524 O.3     1  UNL1       -0.5068
     11 C           4.2650   -4.1697   -4.2893 C.ar    1  UNL1       -0.0167
     12 C           3.9622   -3.4643   -3.1133 C.ar    1  UNL1       -0.0405
     13 C           5.0776   -2.8069   -2.3403 C.3     1  UNL1       -0.0270
     14 C           4.6227   -1.8144   -1.2604 C.3     1  UNL1       -0.0454
     15 C           3.3930   -2.3307   -0.4904 C.3     1  UNL1       -0.0302
     16 C           2.8837   -1.4690    0.7032 C.3     1  UNL1       -0.0252
     17 C           4.0092   -0.8868    1.5736 C.3     1  UNL1       -0.0424
     18 C           4.3114    0.5003    1.0099 C.3     1  UNL1        0.0067
     19 C           3.0560    0.8469    0.2462 C.2     1  UNL1        0.1395
     20 O           2.9000    1.9166   -0.3318 O.2     1  UNL1       -0.2968
     21 H           0.3221   -0.6085    1.7075 H       1  UNL1        0.0239
     22 H           0.5542    1.0969    1.2897 H       1  UNL1        0.0239
     23 H           1.6288    0.3266    2.4504 H       1  UNL1        0.0239
     24 H           0.8709    0.5932   -1.3147 H       1  UNL1        0.0275
     25 H           0.1583   -0.8389   -0.6035 H       1  UNL1        0.0275
     26 H           2.4343   -0.7037   -2.5688 H       1  UNL1        0.0271
     27 H           0.8686   -1.4531   -2.7281 H       1  UNL1        0.0271
     28 H           1.4441   -3.1189   -0.9227 H       1  UNL1        0.0352
     29 H           0.6159   -4.1356   -3.0029 H       1  UNL1        0.0622
     30 H           1.1630   -5.3542   -5.0613 H       1  UNL1        0.0654
     31 H           2.7866   -5.7916   -6.5677 H       1  UNL1        0.2921
     32 H           5.2827   -4.1982   -4.6697 H       1  UNL1        0.0657
     33 H           5.7521   -2.2866   -3.0316 H       1  UNL1        0.0313
     34 H           5.6579   -3.6042   -1.8581 H       1  UNL1        0.0313
     35 H           4.4147   -0.8447   -1.7265 H       1  UNL1        0.0271
     36 H           5.4725   -1.6542   -0.5880 H       1  UNL1        0.0271
     37 H           3.6958   -3.2971   -0.0586 H       1  UNL1        0.0310
     38 H           2.2889   -2.1525    1.3258 H       1  UNL1        0.0313
     39 H           4.9000   -1.5208    1.6139 H       1  UNL1        0.0272
     40 H           3.6599   -0.7876    2.6092 H       1  UNL1        0.0272
     41 H           5.1625    0.4918    0.3262 H       1  UNL1        0.0342
     42 H           4.4837    1.2211    1.8142 H       1  UNL1        0.0342
@<TRIPOS>BOND
     1     1     2    1
     2     2     3    1
     3     3     4    1
     4     4     5    1
     5     5     6    1
     6     6     7   ar
     7     7     8   ar
     8     8     9   ar
     9     9    10    1
    10     9    11   ar
    11    11    12   ar
    12     6    12   ar
    13    12    13    1
    14    13    14    1
    15    14    15    1
    16     5    15    1
    17    15    16    1
    18     2    16    1
    19    16    17    1
    20    17    18    1
    21    18    19    1
    22     2    19    1
    23    19    20    2
    24     1    21    1
    25     1    22    1
    26     1    23    1
    27     3    24    1
    28     3    25    1
    29     4    26    1
    30     4    27    1
    31     5    28    1
    32     7    29    1
    33     8    30    1
    34    10    31    1
    35    11    32    1
    36    13    33    1
    37    13    34    1
    38    14    35    1
    39    14    36    1
    40    15    37    1
    41    16    38    1
    42    17    39    1
    43    17    40    1
    44    18    41    1
    45    18    42    1
