@<TRIPOS>MOLECULE
*****
 26 29 0 0 0
SMALL
GASTEIGER

@<TRIPOS>ATOM
      1 CL          1.6808    0.8649    0.3099 Cl      1  UNL1       -0.0851
      2 C           3.1878    0.0783    0.2309 C.2     1  UNL1        0.0585
      3 C           3.4455   -1.1524    0.7161 C.2     1  UNL1        0.0585
      4 CL          2.3766   -2.1822    1.5505 Cl      1  UNL1       -0.0851
      5 C           4.7300   -1.6022    0.0998 C.3     1  UNL1        0.1196
      6 CL          5.0754   -3.3246    0.1310 Cl      1  UNL1       -0.1086
      7 C           5.9056   -0.7470    0.6556 C.3     1  UNL1       -0.0024
      8 C           6.1135   -0.2976    2.1239 C.3     1  UNL1       -0.0172
      9 C           5.0522    0.6230    2.7127 C.2     1  UNL1       -0.0842
     10 C           5.0955    1.7943    2.0498 C.2     1  UNL1       -0.0842
     11 C           6.1424    1.6552    0.9930 C.3     1  UNL1       -0.0172
     12 C           7.1436    0.8147    1.8288 C.3     1  UNL1       -0.0398
     13 C           5.7197    0.6343   -0.0732 C.3     1  UNL1       -0.0024
     14 C           4.3122    0.4524   -0.7357 C.3     1  UNL1        0.1196
     15 CL          3.9509    1.7391   -1.8776 Cl      1  UNL1       -0.1086
     16 C           4.5148   -0.9891   -1.3423 C.3     1  UNL1        0.1663
     17 CL          5.9163   -1.1767   -2.4698 Cl      1  UNL1       -0.0964
     18 CL          3.0993   -1.6510   -2.2642 Cl      1  UNL1       -0.0964
     19 H           6.8465   -1.1970    0.3055 H       1  UNL1        0.0331
     20 H           6.4605   -1.0721    2.8143 H       1  UNL1        0.0347
     21 H           4.4713    0.4479    3.5996 H       1  UNL1        0.0572
     22 H           4.5746    2.7121    2.2981 H       1  UNL1        0.0572
     23 H           6.5634    2.5938    0.6234 H       1  UNL1        0.0347
     24 H           7.5183    1.3200    2.7302 H       1  UNL1        0.0277
     25 H           8.0070    0.4648    1.2499 H       1  UNL1        0.0277
     26 H           6.4863    0.7359   -0.8506 H       1  UNL1        0.0331
@<TRIPOS>BOND
     1     1     2    1
     2     2     3    2
     3     3     4    1
     4     3     5    1
     5     5     6    1
     6     5     7    1
     7     7     8    1
     8     8     9    1
     9     9    10    2
    10    10    11    1
    11    11    12    1
    12     8    12    1
    13    11    13    1
    14     7    13    1
    15    13    14    1
    16     2    14    1
    17    14    15    1
    18    14    16    1
    19     5    16    1
    20    16    17    1
    21    16    18    1
    22     7    19    1
    23     8    20    1
    24     9    21    1
    25    10    22    1
    26    11    23    1
    27    12    24    1
    28    12    25    1
    29    13    26    1
