@<TRIPOS>MOLECULE
*****
   28    28     1     0     0
SMALL
bcc


@<TRIPOS>ATOM
      1 C            3.0780     2.2340     1.0250 c3         1 UNL      -0.093600
      2 C1           2.5570     1.0740     1.8780 c3         1 UNL      -0.099700
      3 C2           1.0280     1.0940     1.9040 c3         1 UNL      -0.093600
      4 C3           3.0520    -0.2800     1.3510 c3         1 UNL       0.084000
      5 N            4.4930    -0.3940     1.3890 ns         1 UNL      -0.528900
      6 C4           5.1820    -0.8960     2.4610 c          1 UNL       0.781100
      7 O            4.6310    -1.3430     3.4640 o          1 UNL      -0.626100
      8 N1           6.5570    -0.8850     2.3130 n          1 UNL      -0.517400
      9 C5           7.4290    -1.4840     3.2980 c3         1 UNL       0.081000
     10 C6           8.7790    -1.5140     2.6020 c3         1 UNL       0.040000
     11 N2           8.6720    -0.4600     1.6320 ns         1 UNL      -0.517900
     12 C7           7.3320    -0.2030     1.3570 c          1 UNL       0.784500
     13 O1           6.9370     0.4720     0.4200 o          1 UNL      -0.636500
     14 H            2.7000     3.1910     1.3990 hc         1 UNL       0.037867
     15 H1           2.7640     2.1310    -0.0200 hc         1 UNL       0.037867
     16 H2           4.1710     2.2830     1.0470 hc         1 UNL       0.037867
     17 H3           2.9230     1.2150     2.9030 hc         1 UNL       0.056700
     18 H4           0.6120     0.9350     0.9040 hc         1 UNL       0.037867
     19 H5           0.6560     2.0560     2.2750 hc         1 UNL       0.037867
     20 H6           0.6400     0.3100     2.5620 hc         1 UNL       0.037867
     21 H7           2.7490    -0.4250     0.3080 h1         1 UNL       0.068700
     22 H8           2.6180    -1.0950     1.9410 h1         1 UNL       0.068700
     23 H9           5.0390     0.0890     0.6800 hn         1 UNL       0.333500
     24 H10          7.0770    -2.4740     3.6030 h1         1 UNL       0.074700
     25 H11          7.4470    -0.8270     4.1750 h1         1 UNL       0.074700
     26 H12          8.9190    -2.4500     2.0520 h1         1 UNL       0.060700
     27 H13          9.6260    -1.3470     3.2700 h1         1 UNL       0.060700
     28 H14          9.3740    -0.2090     0.9460 hn         1 UNL       0.318500
@<TRIPOS>BOND
     1     1     2 1   
     2     2     3 1   
     3     2     4 1   
     4     4     5 1   
     5     5     6 1   
     6     6     7 2   
     7     6     8 1   
     8     8     9 1   
     9     9    10 1   
    10    10    11 1   
    11    11    12 1   
    12     8    12 1   
    13    12    13 2   
    14     1    14 1   
    15     1    15 1   
    16     1    16 1   
    17     2    17 1   
    18     3    18 1   
    19     3    19 1   
    20     3    20 1   
    21     4    21 1   
    22     4    22 1   
    23     5    23 1   
    24     9    24 1   
    25     9    25 1   
    26    10    26 1   
    27    10    27 1   
    28    11    28 1   
@<TRIPOS>SUBSTRUCTURE
     1 UNL         1 TEMP              0 ****  ****    0 ROOT
