@<TRIPOS>MOLECULE
*****
 35 38 0 0 0
SMALL
GASTEIGER

@<TRIPOS>ATOM
      1 C           0.9743    0.0500    0.0678 C.3     1  UNL1       -0.0041
      2 C           2.4520    0.0221    0.1754 C.ar    1  UNL1        0.1349
      3 N           3.2122    1.0964    0.1120 N.ar    1  UNL1       -0.1342
      4 N           4.5154    0.6962    0.0535 N.ar    1  UNL1       -0.1321
      5 C           4.5373   -0.6187    0.0831 C.ar    1  UNL1        0.1595
      6 N           3.2572   -1.1079    0.2197 N.ar    1  UNL1       -0.2811
      7 C           2.9152   -2.4686    0.4435 C.ar    1  UNL1        0.0587
      8 C           1.8089   -2.7639    1.2627 C.ar    1  UNL1       -0.0357
      9 C           1.4624   -4.0874    1.5493 C.ar    1  UNL1       -0.0414
     10 C           2.2342   -5.1270    1.0473 C.ar    1  UNL1        0.0417
     11 CL          1.7903   -6.7558    1.3717 Cl      1  UNL1       -0.0835
     12 C           3.3532   -4.8565    0.2648 C.ar    1  UNL1       -0.0322
     13 C           3.6876   -3.5306   -0.0765 C.ar    1  UNL1        0.0258
     14 C           4.7832   -3.3427   -1.0956 C.2     1  UNL1        0.0766
     15 C           4.8360   -4.2888   -2.2728 C.ar    1  UNL1        0.0189
     16 C           3.6218   -4.7410   -2.8297 C.ar    1  UNL1       -0.0512
     17 C           3.6110   -5.6901   -3.8543 C.ar    1  UNL1       -0.0611
     18 C           4.8101   -6.1617   -4.3759 C.ar    1  UNL1       -0.0603
     19 C           6.0198   -5.6831   -3.8743 C.ar    1  UNL1       -0.0427
     20 C           6.0427   -4.7579   -2.8206 C.ar    1  UNL1        0.0501
     21 CL          7.6100   -4.3291   -2.2275 Cl      1  UNL1       -0.0829
     22 N           5.6693   -2.4113   -1.0428 N.2     1  UNL1       -0.2748
     23 C           5.7263   -1.4888    0.0786 C.3     1  UNL1        0.1004
     24 H           0.6450    1.0307   -0.2927 H       1  UNL1        0.0308
     25 H           0.4988   -0.1069    1.0388 H       1  UNL1        0.0308
     26 H           0.6133   -0.6984   -0.6437 H       1  UNL1        0.0308
     27 H           1.2284   -1.9873    1.7520 H       1  UNL1        0.0639
     28 H           0.5994   -4.2965    2.1780 H       1  UNL1        0.0633
     29 H           3.9431   -5.6913   -0.1096 H       1  UNL1        0.0639
     30 H           2.6651   -4.3755   -2.4640 H       1  UNL1        0.0625
     31 H           2.6655   -6.0620   -4.2429 H       1  UNL1        0.0618
     32 H           4.8071   -6.9008   -5.1736 H       1  UNL1        0.0618
     33 H           6.9521   -6.0504   -4.2983 H       1  UNL1        0.0632
     34 H           6.6291   -0.8756   -0.0226 H       1  UNL1        0.0590
     35 H           5.8318   -2.0263    1.0321 H       1  UNL1        0.0590
@<TRIPOS>BOND
     1     1     2    1
     2     2     3   ar
     3     3     4   ar
     4     4     5   ar
     5     5     6   ar
     6     2     6   ar
     7     6     7    1
     8     7     8   ar
     9     8     9   ar
    10     9    10   ar
    11    10    11    1
    12    10    12   ar
    13    12    13   ar
    14     7    13   ar
    15    13    14    1
    16    14    15    1
    17    15    16   ar
    18    16    17   ar
    19    17    18   ar
    20    18    19   ar
    21    19    20   ar
    22    15    20   ar
    23    20    21    1
    24    14    22    2
    25    22    23    1
    26     5    23    1
    27     1    24    1
    28     1    25    1
    29     1    26    1
    30     8    27    1
    31     9    28    1
    32    12    29    1
    33    16    30    1
    34    17    31    1
    35    18    32    1
    36    19    33    1
    37    23    34    1
    38    23    35    1
