@<TRIPOS>MOLECULE
*****
   10    10     1     0     0
SMALL
bcc


@<TRIPOS>ATOM
      1 O            2.6690    -1.0760    -0.0040 o          1 UNL      -0.562500
      2 C            1.6330    -0.4260     0.0050 c          1 UNL       0.697500
      3 C1           1.5650     1.0790     0.0380 c3         1 UNL      -0.141300
      4 S           -0.2030     1.4890     0.0020 ss         1 UNL      -0.110700
      5 C2          -0.6960    -0.1810    -0.0020 cs         1 UNL       0.361000
      6 S1          -2.2530    -0.7420    -0.0040 s          1 UNL      -0.289400
      7 N            0.3910    -0.9940    -0.0060 ns         1 UNL      -0.557500
      8 H            2.0680     1.4940    -0.8380 h1         1 UNL       0.121700
      9 H1           2.0170     1.4490     0.9610 h1         1 UNL       0.121700
     10 H2           0.2950    -1.9980    -0.0190 hn         1 UNL       0.360500
@<TRIPOS>BOND
     1     1     2 2   
     2     2     3 1   
     3     3     4 1   
     4     4     5 1   
     5     5     6 2   
     6     5     7 1   
     7     2     7 1   
     8     3     8 1   
     9     3     9 1   
    10     7    10 1   
@<TRIPOS>SUBSTRUCTURE
     1 UNL         1 TEMP              0 ****  ****    0 ROOT
