@<TRIPOS>MOLECULE
*****
   14    14     1     0     0
SMALL
bcc


@<TRIPOS>ATOM
      1 N            2.9760    -0.6150     1.2220 nt         1 UNL      -0.651000
      2 C            2.4820    -0.0430     0.0820 c          1 UNL       0.574600
      3 O            1.4800     0.6640     0.1040 o          1 UNL      -0.615100
      4 C1           3.2330    -0.3110    -1.1740 ca         1 UNL       0.236500
      5 C2           2.8150     0.2760    -2.3610 ca         1 UNL       0.339900
      6 N1           3.4610     0.0710    -3.5380 nb         1 UNL      -0.633000
      7 C3           4.5370    -0.7460    -3.4710 ca         1 UNL       0.303900
      8 C4           4.9560    -1.3300    -2.2830 ca         1 UNL       0.274900
      9 N2           4.3220    -1.1310    -1.1030 nb         1 UNL      -0.622000
     10 H            2.5320    -0.3990     2.1040 hn         1 UNL       0.323500
     11 H1           3.8650    -1.1000     1.2060 hn         1 UNL       0.323500
     12 H2           1.9520     0.9310    -2.4020 h4         1 UNL       0.066100
     13 H3           5.0610    -0.9180    -4.4050 h4         1 UNL       0.039100
     14 H4           5.8220    -1.9830    -2.2560 h4         1 UNL       0.038100
@<TRIPOS>BOND
     1     1     2 1   
     2     2     3 2   
     3     2     4 1   
     4     4     5 ar  
     5     5     6 ar  
     6     6     7 ar  
     7     7     8 ar  
     8     8     9 ar  
     9     4     9 ar  
    10     1    10 1   
    11     1    11 1   
    12     5    12 1   
    13     7    13 1   
    14     8    14 1   
@<TRIPOS>SUBSTRUCTURE
     1 UNL         1 TEMP              0 ****  ****    0 ROOT
