@<TRIPOS>MOLECULE
*****
   19    20     1     0     0
SMALL
bcc


@<TRIPOS>ATOM
      1 C           -2.1280     0.7080    -0.0600 ca         1 UNL      -0.132000
      2 C1          -2.1330    -0.6960    -0.0650 ca         1 UNL      -0.132000
      3 C2          -0.9360    -1.4120    -0.0040 ca         1 UNL      -0.119000
      4 C3           0.2510    -0.7010     0.0450 ca         1 UNL      -0.086300
      5 C4           0.2550     0.6980     0.0530 ca         1 UNL      -0.086300
      6 C5          -0.9270     1.4170     0.0090 ca         1 UNL      -0.119000
      7 C6           1.6530     1.2240     0.1590 c3         1 UNL      -0.036100
      8 C7           2.4610    -0.0050    -0.2830 c3         1 UNL      -0.079400
      9 C8           1.6460    -1.2360     0.1400 c3         1 UNL      -0.036100
     10 H           -3.0710     1.2480    -0.1060 ha         1 UNL       0.129000
     11 H1          -3.0790    -1.2300    -0.1140 ha         1 UNL       0.129000
     12 H2          -0.9400    -2.4970     0.0030 ha         1 UNL       0.132000
     13 H3          -0.9260     2.5010     0.0230 ha         1 UNL       0.132000
     14 H4           1.8770     1.4920     1.1970 hc         1 UNL       0.053700
     15 H5           1.8320     2.0790    -0.4980 hc         1 UNL       0.053700
     16 H6           3.4750    -0.0110     0.1280 hc         1 UNL       0.043700
     17 H7           2.5560     0.0040    -1.3780 hc         1 UNL       0.043700
     18 H8           1.8720    -1.5250     1.1710 hc         1 UNL       0.053700
     19 H9           1.8190    -2.0800    -0.5340 hc         1 UNL       0.053700
@<TRIPOS>BOND
     1     1     2 ar  
     2     2     3 ar  
     3     3     4 ar  
     4     4     5 ar  
     5     5     6 ar  
     6     1     6 ar  
     7     5     7 1   
     8     7     8 1   
     9     8     9 1   
    10     4     9 1   
    11     1    10 1   
    12     2    11 1   
    13     3    12 1   
    14     6    13 1   
    15     7    14 1   
    16     7    15 1   
    17     8    16 1   
    18     8    17 1   
    19     9    18 1   
    20     9    19 1   
@<TRIPOS>SUBSTRUCTURE
     1 UNL         1 TEMP              0 ****  ****    0 ROOT
