@<TRIPOS>MOLECULE
*****
 26 29 0 0 0
SMALL
GASTEIGER

@<TRIPOS>ATOM
      1 C           3.6665    0.7026    0.0259 C.ar    1  UNL1       -0.0611
      2 C           3.6651   -0.7059    0.0460 C.ar    1  UNL1       -0.0611
      3 C           2.4672   -1.4278    0.0211 C.ar    1  UNL1       -0.0534
      4 C           1.2849   -0.7127   -0.0137 C.ar    1  UNL1       -0.0096
      5 C           1.2861    0.7115   -0.0210 C.ar    1  UNL1       -0.0096
      6 C           2.4697    1.4253   -0.0103 C.ar    1  UNL1       -0.0534
      7 C          -0.1067    1.1403   -0.0155 C.ar    1  UNL1       -0.0090
      8 C          -0.7123    2.3832    0.0078 C.ar    1  UNL1       -0.0534
      9 C          -2.1179    2.4439    0.0339 C.ar    1  UNL1       -0.0606
     10 C          -2.9048    1.2711    0.0380 C.ar    1  UNL1       -0.0540
     11 C          -2.2919    0.0030    0.0184 C.ar    1  UNL1       -0.0167
     12 C          -2.9076   -1.2638    0.0333 C.ar    1  UNL1       -0.0540
     13 C          -2.1236   -2.4373    0.0178 C.ar    1  UNL1       -0.0606
     14 C          -0.7174   -2.3801   -0.0090 C.ar    1  UNL1       -0.0534
     15 C          -0.1084   -1.1385   -0.0159 C.ar    1  UNL1       -0.0090
     16 C          -0.9002    0.0015   -0.0087 C.ar    1  UNL1       -0.0024
     17 H           4.6146    1.2356    0.0469 H       1  UNL1        0.0618
     18 H           4.6123   -1.2395    0.0872 H       1  UNL1        0.0618
     19 H           2.4728   -2.5114    0.0420 H       1  UNL1        0.0624
     20 H           2.4769    2.5092   -0.0191 H       1  UNL1        0.0624
     21 H          -0.1236    3.2949    0.0137 H       1  UNL1        0.0624
     22 H          -2.6091    3.4138    0.0594 H       1  UNL1        0.0618
     23 H          -3.9881    1.3543    0.0644 H       1  UNL1        0.0624
     24 H          -3.9911   -1.3442    0.0650 H       1  UNL1        0.0624
     25 H          -2.6167   -3.4072    0.0332 H       1  UNL1        0.0618
     26 H          -0.1314   -3.2934   -0.0190 H       1  UNL1        0.0624
@<TRIPOS>BOND
     1     1     2   ar
     2     2     3   ar
     3     3     4   ar
     4     4     5   ar
     5     5     6   ar
     6     1     6   ar
     7     5     7    1
     8     7     8   ar
     9     8     9   ar
    10     9    10   ar
    11    10    11   ar
    12    11    12   ar
    13    12    13   ar
    14    13    14   ar
    15    14    15   ar
    16     4    15    1
    17    15    16   ar
    18     7    16   ar
    19    11    16   ar
    20     1    17    1
    21     2    18    1
    22     3    19    1
    23     6    20    1
    24     8    21    1
    25     9    22    1
    26    10    23    1
    27    12    24    1
    28    13    25    1
    29    14    26    1
