@<TRIPOS>MOLECULE
*****
   19    19     1     0     0
SMALL
bcc


@<TRIPOS>ATOM
      1 C            1.2100     0.0300     0.0690 c3         1 UNL      -0.168100
      2 C1           2.6930     0.0810    -0.1880 c          1 UNL       0.658100
      3 O            3.1340     0.0250    -1.3290 o          1 UNL      -0.578100
      4 N            3.4180     0.1910     0.9770 ns         1 UNL      -0.520400
      5 C2           4.7820     0.3120     1.0770 cc         1 UNL       0.416300
      6 N1           5.4110     0.2370     2.2330 nd         1 UNL      -0.363000
      7 N2           6.7780     0.3950     2.0940 nd         1 UNL      -0.216000
      8 C3           7.0950     0.6170     0.8340 cc         1 UNL      -0.105700
      9 S            8.7260     0.9000     0.2350 sy         1 UNL       1.491800
     10 N3           9.7850     0.7420     1.5430 n8         1 UNL      -1.016700
     11 O1           9.0160    -0.1910    -0.6670 o          1 UNL      -0.654800
     12 O2           8.7650     2.2890    -0.1640 o          1 UNL      -0.654800
     13 S1           5.7940     0.6340    -0.2590 ss         1 UNL       0.214200
     14 H            0.6880    -0.2400    -0.8540 hc         1 UNL       0.080367
     15 H1           0.8630     1.0130     0.3980 hc         1 UNL       0.080367
     16 H2           0.9780    -0.7220     0.8290 hc         1 UNL       0.080367
     17 H3           2.9490     0.0900     1.8670 hn         1 UNL       0.348500
     18 H4           9.7580    -0.1980     1.9340 hn         1 UNL       0.453800
     19 H5           9.6360     1.4790     2.2300 hn         1 UNL       0.453800
@<TRIPOS>BOND
     1     1     2 1   
     2     2     3 2   
     3     2     4 1   
     4     4     5 1   
     5     5     6 2   
     6     6     7 1   
     7     7     8 2   
     8     8     9 1   
     9     9    10 1   
    10     9    11 2   
    11     9    12 2   
    12     8    13 1   
    13     5    13 1   
    14     1    14 1   
    15     1    15 1   
    16     1    16 1   
    17     4    17 1   
    18    10    18 1   
    19    10    19 1   
@<TRIPOS>SUBSTRUCTURE
     1 UNL         1 TEMP              0 ****  ****    0 ROOT
