@<TRIPOS>MOLECULE
*****
 40 41 0 0 0
SMALL
GASTEIGER

@<TRIPOS>ATOM
      1 C           0.9793   -0.0090    0.1872 C.3     1  UNL1        0.0098
      2 N           2.4444    0.0226    0.1848 N.am    1  UNL1       -0.2586
      3 C           3.2103    0.5154    1.2521 C.2     1  UNL1        0.3069
      4 O           4.4399    0.5502    1.2524 O.2     1  UNL1       -0.2523
      5 N           2.5240    0.9912    2.3548 N.am    1  UNL1       -0.2900
      6 C           3.2344    1.5426    3.5376 C.3     1  UNL1        0.0555
      7 C           4.1529    0.4708    4.1793 C.3     1  UNL1       -0.0397
      8 C           4.1175    2.7449    3.1160 C.3     1  UNL1       -0.0397
      9 C           2.1953    1.9507    4.6143 C.ar    1  UNL1       -0.0246
     10 C           1.3244    0.9863    5.1583 C.ar    1  UNL1       -0.0566
     11 C           0.4770    1.2937    6.2286 C.ar    1  UNL1       -0.0614
     12 C           0.4681    2.5755    6.7703 C.ar    1  UNL1       -0.0617
     13 C           1.2878    3.5565    6.2262 C.ar    1  UNL1       -0.0614
     14 C           2.1337    3.2499    5.1563 C.ar    1  UNL1       -0.0566
     15 C           3.0958   -0.4934   -1.0183 C.ar    1  UNL1        0.0374
     16 C           4.4304   -0.9289   -1.0258 C.ar    1  UNL1       -0.0402
     17 C           5.0566   -1.4044   -2.1866 C.ar    1  UNL1       -0.0600
     18 C           4.3528   -1.4681   -3.3788 C.ar    1  UNL1       -0.0616
     19 C           3.0238   -1.0659   -3.4043 C.ar    1  UNL1       -0.0600
     20 C           2.4030   -0.5886   -2.2415 C.ar    1  UNL1       -0.0402
     21 H           0.5485    0.1427    1.1780 H       1  UNL1        0.0433
     22 H           0.6353   -0.9922   -0.1545 H       1  UNL1        0.0433
     23 H           0.6011    0.7752   -0.4767 H       1  UNL1        0.0433
     24 H           1.6145    1.3884    2.1944 H       1  UNL1        0.1511
     25 H           5.0028    0.2116    3.5408 H       1  UNL1        0.0253
     26 H           3.6126   -0.4637    4.3730 H       1  UNL1        0.0253
     27 H           4.5660    0.8214    5.1318 H       1  UNL1        0.0253
     28 H           4.9174    2.4675    2.4242 H       1  UNL1        0.0253
     29 H           4.6223    3.1972    3.9771 H       1  UNL1        0.0253
     30 H           3.5204    3.5162    2.6142 H       1  UNL1        0.0253
     31 H           1.3261   -0.0324    4.7740 H       1  UNL1        0.0621
     32 H          -0.1616    0.5239    6.6544 H       1  UNL1        0.0618
     33 H          -0.1700    2.8093    7.6181 H       1  UNL1        0.0618
     34 H           1.2887    4.5604    6.6443 H       1  UNL1        0.0618
     35 H           2.7639    4.0539    4.7861 H       1  UNL1        0.0621
     36 H           5.0344   -0.9492   -0.1229 H       1  UNL1        0.0636
     37 H           6.0964   -1.7150   -2.1397 H       1  UNL1        0.0618
     38 H           4.8398   -1.8322   -4.2768 H       1  UNL1        0.0618
     39 H           2.4679   -1.1132   -4.3356 H       1  UNL1        0.0618
     40 H           1.3723   -0.2628   -2.3355 H       1  UNL1        0.0636
@<TRIPOS>BOND
     1     1     2    1
     2     2     3   am
     3     3     4    2
     4     3     5   am
     5     5     6    1
     6     6     7    1
     7     6     8    1
     8     6     9    1
     9     9    10   ar
    10    10    11   ar
    11    11    12   ar
    12    12    13   ar
    13    13    14   ar
    14     9    14   ar
    15     2    15    1
    16    15    16   ar
    17    16    17   ar
    18    17    18   ar
    19    18    19   ar
    20    19    20   ar
    21    15    20   ar
    22     1    21    1
    23     1    22    1
    24     1    23    1
    25     5    24    1
    26     7    25    1
    27     7    26    1
    28     7    27    1
    29     8    28    1
    30     8    29    1
    31     8    30    1
    32    10    31    1
    33    11    32    1
    34    12    33    1
    35    13    34    1
    36    14    35    1
    37    16    36    1
    38    17    37    1
    39    18    38    1
    40    19    39    1
    41    20    40    1
