@<TRIPOS>MOLECULE
*****
   43    44     1     0     0
SMALL
bcc


@<TRIPOS>ATOM
      1 C            0.8670     0.2270     0.1340 c3         1 UNL      -0.092100
      2 C1           2.3820     0.1150    -0.0490 c3         1 UNL      -0.069700
      3 C2           2.9230     1.1210    -1.0800 c3         1 UNL      -0.068400
      4 C3           2.5700     0.7630    -2.5300 c3         1 UNL      -0.160700
      5 C4           3.2150     1.7430    -3.5060 c3         1 UNL      -0.087100
      6 C5           2.9800    -0.6820    -2.8090 c          1 UNL       0.584100
      7 O            3.6370    -1.0140    -3.7950 o          1 UNL      -0.551100
      8 C6           2.4080    -1.7100    -1.8390 c3         1 UNL      -0.198700
      9 C7           2.7530    -3.1710    -2.1840 c3         1 UNL       0.158100
     10 O1           2.3500    -3.4580    -3.5240 oh         1 UNL      -0.606800
     11 C8           4.2150    -3.6090    -1.9800 c3         1 UNL      -0.122400
     12 C9           4.4670    -5.0970    -2.3430 c3         1 UNL      -0.064700
     13 C10          3.7100    -6.0850    -1.4510 c3         1 UNL      -0.151900
     14 C11          4.2700    -6.1220    -0.0500 c          1 UNL       0.702000
     15 O2           3.5610    -6.2480     0.9440 o          1 UNL      -0.609500
     16 N            5.6320    -6.0270     0.0560 ns         1 UNL      -0.600500
     17 C12          6.4960    -5.5590    -0.8980 c          1 UNL       0.702000
     18 O3           7.6590    -5.2810    -0.6150 o          1 UNL      -0.609500
     19 C13          5.9570    -5.4440    -2.3040 c3         1 UNL      -0.151900
     20 C14          2.8120    -1.3150    -0.4150 c3         1 UNL      -0.065400
     21 H            0.5990     1.2210     0.5050 hc         1 UNL       0.037367
     22 H1           0.5130    -0.5080     0.8660 hc         1 UNL       0.037367
     23 H2           0.3170     0.0610    -0.7970 hc         1 UNL       0.037367
     24 H3           2.8360     0.3570     0.9220 hc         1 UNL       0.055700
     25 H4           4.0160     1.1590    -0.9770 hc         1 UNL       0.051200
     26 H5           2.5530     2.1270    -0.8440 hc         1 UNL       0.051200
     27 H6           1.4840     0.8170    -2.6740 hc         1 UNL       0.074700
     28 H7           4.3080     1.7180    -3.4370 hc         1 UNL       0.045700
     29 H8           2.8820     2.7660    -3.3040 hc         1 UNL       0.045700
     30 H9           2.9420     1.4990    -4.5380 hc         1 UNL       0.045700
     31 H10          1.3190    -1.6240    -1.9560 hc         1 UNL       0.088700
     32 H11          2.1180    -3.7890    -1.5410 h1         1 UNL       0.071700
     33 H12          2.8750    -2.8680    -4.1080 ho         1 UNL       0.421000
     34 H13          4.5230    -3.4250    -0.9450 hc         1 UNL       0.064700
     35 H14          4.8630    -2.9950    -2.6190 hc         1 UNL       0.064700
     36 H15          4.1280    -5.2500    -3.3760 hc         1 UNL       0.087700
     37 H16          3.7880    -7.1000    -1.8590 hc         1 UNL       0.086200
     38 H17          2.6440    -5.8470    -1.3970 hc         1 UNL       0.086200
     39 H18          6.0030    -6.0630     0.9960 hn         1 UNL       0.336500
     40 H19          6.1330    -6.4070    -2.7990 hc         1 UNL       0.086200
     41 H20          6.5390    -4.6860    -2.8410 hc         1 UNL       0.086200
     42 H21          3.9030    -1.3670    -0.3130 hc         1 UNL       0.052200
     43 H22          2.3910    -2.0270     0.3050 hc         1 UNL       0.052200
@<TRIPOS>BOND
     1     1     2 1   
     2     2     3 1   
     3     3     4 1   
     4     4     5 1   
     5     4     6 1   
     6     6     7 2   
     7     6     8 1   
     8     8     9 1   
     9     9    10 1   
    10     9    11 1   
    11    11    12 1   
    12    12    13 1   
    13    13    14 1   
    14    14    15 2   
    15    14    16 1   
    16    16    17 1   
    17    17    18 2   
    18    17    19 1   
    19    12    19 1   
    20     8    20 1   
    21     2    20 1   
    22     1    21 1   
    23     1    22 1   
    24     1    23 1   
    25     2    24 1   
    26     3    25 1   
    27     3    26 1   
    28     4    27 1   
    29     5    28 1   
    30     5    29 1   
    31     5    30 1   
    32     8    31 1   
    33     9    32 1   
    34    10    33 1   
    35    11    34 1   
    36    11    35 1   
    37    12    36 1   
    38    13    37 1   
    39    13    38 1   
    40    16    39 1   
    41    19    40 1   
    42    19    41 1   
    43    20    42 1   
    44    20    43 1   
@<TRIPOS>SUBSTRUCTURE
     1 UNL         1 TEMP              0 ****  ****    0 ROOT
