@<TRIPOS>MOLECULE
*****
 23 24 0 0 0
SMALL
GASTEIGER

@<TRIPOS>ATOM
      1 O          -2.2297    0.4377   -0.2298 O.2     1  UNL1       -0.2736
      2 C          -1.0708    0.0737   -0.0985 C.2     1  UNL1        0.2399
      3 C          -0.5702   -1.3489   -0.2301 C.3     1  UNL1        0.1159
      4 N           0.8442   -1.1526    0.0001 N.am    1  UNL1       -0.1678
      5 N           1.6924   -2.2191   -0.1196 N.2     1  UNL1       -0.1802
      6 C           2.9584   -2.0785    0.1141 C.2     1  UNL1        0.0884
      7 C           3.8297   -3.2166   -0.0315 C.ar    1  UNL1        0.1545
      8 C           3.5817   -4.5241   -0.4162 C.ar    1  UNL1       -0.0078
      9 C           4.8155   -5.2181   -0.3523 C.ar    1  UNL1        0.0595
     10 C           5.7347   -4.2847    0.0632 C.ar    1  UNL1        0.4380
     11 N           7.1345   -4.3913    0.3331 N.pl3   1  UNL1        0.1186
     12 O           7.6334   -5.5170    0.1932 O.2     1  UNL1        0.0446
     13 O           7.7363   -3.3700    0.6844 O.co2   1  UNL1       -0.5735
     14 O           5.1619   -3.0646    0.2559 O.2     1  UNL1       -0.3992
     15 C           1.1454    0.2002    0.2101 C.2     1  UNL1        0.3284
     16 O           2.2345    0.7254    0.3769 O.2     1  UNL1       -0.2504
     17 N          -0.0251    0.8927    0.1796 N.am    1  UNL1       -0.2373
     18 H          -0.7364   -1.7292   -1.2401 H       1  UNL1        0.0582
     19 H          -0.9945   -1.9902    0.5450 H       1  UNL1        0.0582
     20 H           3.4416   -1.1443    0.4351 H       1  UNL1        0.0883
     21 H           2.6147   -4.9205   -0.6968 H       1  UNL1        0.0658
     22 H           5.0078   -6.2595   -0.5702 H       1  UNL1        0.0722
     23 H          -0.0887    1.8908    0.2838 H       1  UNL1        0.1592
@<TRIPOS>UNITY_ATOM_ATTR
11 1
charge 1
13 1
charge -1
@<TRIPOS>BOND
     1     1     2    2
     2     2     3    1
     3     3     4    1
     4     4     5    1
     5     5     6    2
     6     6     7    1
     7     7     8   ar
     8     8     9   ar
     9     9    10   ar
    10    10    11    1
    11    11    12    2
    12    11    13    1
    13    10    14   ar
    14     7    14   ar
    15     4    15   am
    16    15    16    2
    17    15    17   am
    18     2    17   am
    19     3    18    1
    20     3    19    1
    21     6    20    1
    22     8    21    1
    23     9    22    1
    24    17    23    1
