@<TRIPOS>MOLECULE
*****
 24 25 0 0 0
SMALL
GASTEIGER

@<TRIPOS>ATOM
      1 C           1.4334   -0.2168    0.0411 C.ar    1  UNL1       -0.0616
      2 C           0.6519   -1.1089   -0.6879 C.ar    1  UNL1       -0.0600
      3 C          -0.7305   -0.9237   -0.7598 C.ar    1  UNL1       -0.0405
      4 C          -1.3494    0.1467   -0.1037 C.ar    1  UNL1        0.0313
      5 N          -2.7460    0.3459   -0.1365 N.pl3   1  UNL1       -0.3145
      6 C          -3.7526   -0.6343   -0.2533 C.ar    1  UNL1        0.0313
      7 C          -3.6074   -1.9044    0.3234 C.ar    1  UNL1       -0.0405
      8 C          -4.6008   -2.8758    0.1905 C.ar    1  UNL1       -0.0600
      9 C          -5.7662   -2.5843   -0.5112 C.ar    1  UNL1       -0.0616
     10 C          -5.9411   -1.3182   -1.0666 C.ar    1  UNL1       -0.0600
     11 C          -4.9424   -0.3474   -0.9332 C.ar    1  UNL1       -0.0405
     12 C          -0.5477    1.0526    0.6006 C.ar    1  UNL1       -0.0405
     13 C           0.8351    0.8667    0.6817 C.ar    1  UNL1       -0.0600
     14 H           2.5076   -0.3660    0.1090 H       1  UNL1        0.0618
     15 H           1.1121   -1.9502   -1.1982 H       1  UNL1        0.0618
     16 H          -1.3216   -1.6222   -1.3482 H       1  UNL1        0.0636
     17 H          -2.9867    1.2412   -0.5508 H       1  UNL1        0.1522
     18 H          -2.7148   -2.1417    0.8965 H       1  UNL1        0.0636
     19 H          -4.4601   -3.8549    0.6400 H       1  UNL1        0.0618
     20 H          -6.5391   -3.3404   -0.6178 H       1  UNL1        0.0618
     21 H          -6.8557   -1.0860   -1.6063 H       1  UNL1        0.0618
     22 H          -5.1018    0.6315   -1.3777 H       1  UNL1        0.0636
     23 H          -1.0038    1.8903    1.1219 H       1  UNL1        0.0636
     24 H           1.4428    1.5624    1.2537 H       1  UNL1        0.0618
@<TRIPOS>BOND
     1     1     2   ar
     2     2     3   ar
     3     3     4   ar
     4     4     5    1
     5     5     6    1
     6     6     7   ar
     7     7     8   ar
     8     8     9   ar
     9     9    10   ar
    10    10    11   ar
    11     6    11   ar
    12     4    12   ar
    13    12    13   ar
    14     1    13   ar
    15     1    14    1
    16     2    15    1
    17     3    16    1
    18     5    17    1
    19     7    18    1
    20     8    19    1
    21     9    20    1
    22    10    21    1
    23    11    22    1
    24    12    23    1
    25    13    24    1
