@<TRIPOS>MOLECULE
*****
   57    59     1     0     0
SMALL
bcc


@<TRIPOS>ATOM
      1 C            2.9500    -0.4290    -1.0040 c3         1 UNL      -0.106600
      2 C1           2.5550    -0.3050     0.4760 c3         1 UNL      -0.062700
      3 C2           2.8200    -1.6290     1.1970 c3         1 UNL      -0.106600
      4 C3           3.1970     0.9450     1.1390 c3         1 UNL       0.181500
      5 N            2.6890     1.1770     2.5190 nu         1 UNL      -0.734600
      6 C4           1.5280     1.9140     2.8080 ca         1 UNL       0.200600
      7 C5           0.4250     1.9680     1.9500 ca         1 UNL      -0.198000
      8 C6          -0.7910     2.5450     2.3490 ca         1 UNL      -0.038000
      9 C7          -0.9490     3.0910     3.6280 ca         1 UNL      -0.210300
     10 C8          -2.2750     3.6490     4.0830 c3         1 UNL       0.694200
     11 F           -3.2370     3.6170     3.1190 f          1 UNL      -0.237633
     12 F1          -2.7890     2.9660     5.1430 f          1 UNL      -0.237633
     13 F2          -2.1880     4.9480     4.4800 f          1 UNL      -0.237633
     14 C9           0.1540     3.0850     4.4880 ca         1 UNL      -0.036000
     15 C10          1.3650     2.5060     4.0840 ca         1 UNL      -0.052600
     16 Cl           2.6970     2.5660     5.1950 cl         1 UNL      -0.081400
     17 C11          4.7480     0.8610     1.1790 c          1 UNL       0.603100
     18 O            5.4500     0.0060     0.6620 o          1 UNL      -0.520000
     19 O1           5.2510     1.9190     1.8810 os         1 UNL      -0.433900
     20 C12          6.6910     1.9400     1.9860 c3         1 UNL       0.261500
     21 C13          7.3310     2.3620     0.7110 c1         1 UNL       0.195700
     22 N1           7.8050     2.7060    -0.2920 n1         1 UNL      -0.340800
     23 C14          6.9960     2.9060     3.1250 ca         1 UNL      -0.088300
     24 C15          6.6850     4.2700     2.9990 ca         1 UNL      -0.120000
     25 C16          6.9970     5.1640     4.0200 ca         1 UNL      -0.109000
     26 C17          7.5940     4.7070     5.1900 ca         1 UNL      -0.160000
     27 C18          7.8120     3.3360     5.3780 ca         1 UNL       0.111100
     28 O2           8.3160     2.7880     6.5390 os         1 UNL      -0.248200
     29 C19          8.0190     3.3770     7.7520 ca         1 UNL       0.094100
     30 C20          6.8090     4.0140     8.0440 ca         1 UNL      -0.151000
     31 C21          6.6250     4.6430     9.2760 ca         1 UNL      -0.110000
     32 C22          7.6210     4.5780    10.2480 ca         1 UNL      -0.143000
     33 C23          8.7970     3.8720     9.9920 ca         1 UNL      -0.110000
     34 C24          8.9960     3.2720     8.7460 ca         1 UNL      -0.151000
     35 C25          7.5550     2.4460     4.3300 ca         1 UNL      -0.124000
     36 H            2.2340    -1.0670    -1.5340 hc         1 UNL       0.048533
     37 H1           3.9380    -0.8830    -1.1300 hc         1 UNL       0.048533
     38 H2           2.9550     0.5470    -1.5000 hc         1 UNL       0.048533
     39 H3           1.4690    -0.1770     0.4840 hc         1 UNL       0.072700
     40 H4           3.8690    -1.9350     1.1330 hc         1 UNL       0.048533
     41 H5           2.2240    -2.4280     0.7380 hc         1 UNL       0.048533
     42 H6           2.5390    -1.5770     2.2520 hc         1 UNL       0.048533
     43 H7           2.9750     1.8290     0.5260 h1         1 UNL       0.097700
     44 H8           3.4370     1.4840     3.1500 hn         1 UNL       0.439800
     45 H9           0.4640     1.5450     0.9540 ha         1 UNL       0.155000
     46 H10         -1.6280     2.5400     1.6500 ha         1 UNL       0.154000
     47 H11          0.0650     3.5180     5.4850 ha         1 UNL       0.166000
     48 H12          7.0520     0.9420     2.2670 h1         1 UNL       0.117700
     49 H13          6.2080     4.6520     2.0970 ha         1 UNL       0.147000
     50 H14          6.7690     6.2220     3.9070 ha         1 UNL       0.141000
     51 H15          7.8540     5.4220     5.9620 ha         1 UNL       0.154000
     52 H16          6.0070     4.0520     7.3120 ha         1 UNL       0.149000
     53 H17          5.7030     5.1850     9.4740 ha         1 UNL       0.138000
     54 H18          7.4760     5.0680    11.2070 ha         1 UNL       0.136000
     55 H19          9.5610     3.7960    10.7610 ha         1 UNL       0.138000
     56 H20          9.9180     2.7320     8.5490 ha         1 UNL       0.149000
     57 H21          7.7850     1.3920     4.4710 ha         1 UNL       0.158000
@<TRIPOS>BOND
     1     1     2 1   
     2     2     3 1   
     3     2     4 1   
     4     4     5 1   
     5     5     6 1   
     6     6     7 ar  
     7     7     8 ar  
     8     8     9 ar  
     9     9    10 1   
    10    10    11 1   
    11    10    12 1   
    12    10    13 1   
    13     9    14 ar  
    14    14    15 ar  
    15     6    15 ar  
    16    15    16 1   
    17     4    17 1   
    18    17    18 2   
    19    17    19 1   
    20    19    20 1   
    21    20    21 1   
    22    21    22 3   
    23    20    23 1   
    24    23    24 ar  
    25    24    25 ar  
    26    25    26 ar  
    27    26    27 ar  
    28    27    28 1   
    29    28    29 1   
    30    29    30 ar  
    31    30    31 ar  
    32    31    32 ar  
    33    32    33 ar  
    34    33    34 ar  
    35    29    34 ar  
    36    27    35 ar  
    37    23    35 ar  
    38     1    36 1   
    39     1    37 1   
    40     1    38 1   
    41     2    39 1   
    42     3    40 1   
    43     3    41 1   
    44     3    42 1   
    45     4    43 1   
    46     5    44 1   
    47     7    45 1   
    48     8    46 1   
    49    14    47 1   
    50    20    48 1   
    51    24    49 1   
    52    25    50 1   
    53    26    51 1   
    54    30    52 1   
    55    31    53 1   
    56    32    54 1   
    57    33    55 1   
    58    34    56 1   
    59    35    57 1   
@<TRIPOS>SUBSTRUCTURE
     1 UNL         1 TEMP              0 ****  ****    0 ROOT
