@<TRIPOS>MOLECULE
*****
   27    31     1     0     0
SMALL
bcc


@<TRIPOS>ATOM
      1 Cl           1.3170    -0.5710    -0.2010 cl         1 UNL      -0.009900
      2 C            2.8250     0.2010    -0.2130 c2         1 UNL      -0.041300
      3 C1           3.2560     1.1500    -1.0590 c2         1 UNL      -0.041300
      4 Cl1          2.3970     1.8810    -2.3240 cl         1 UNL      -0.009900
      5 C2           4.6390     1.5840    -0.6100 c3         1 UNL       0.111600
      6 Cl2          5.1540     3.1980    -1.0600 cl         1 UNL      -0.076900
      7 C3           5.7150     0.4980    -0.8150 c3         1 UNL      -0.098200
      8 C4           6.7440    -0.1620    -1.7660 c3         1 UNL      -0.029700
      9 C5           6.3050    -1.6500    -1.8900 c3         1 UNL      -0.094400
     10 C6           6.1020    -1.8340    -0.3250 c3         1 UNL      -0.029700
     11 C7           7.5250    -1.5280     0.1060 cx         1 UNL       0.045100
     12 O            7.9270    -0.2440     0.5280 op         1 UNL      -0.370600
     13 C8           8.0020    -0.4590    -0.8850 cx         1 UNL       0.045100
     14 C9           5.0260    -0.7500    -0.2140 c3         1 UNL      -0.098200
     15 C10          3.9820    -0.1300     0.7580 c3         1 UNL       0.111600
     16 Cl3          3.5960    -1.1110     2.1420 cl         1 UNL      -0.076900
     17 C11          4.4060     1.3590     0.9790 c3         1 UNL       0.124800
     18 Cl4          5.8090     1.5430     2.0950 cl         1 UNL      -0.086900
     19 Cl5          3.1290     2.4270     1.7180 cl         1 UNL      -0.086900
     20 H            6.4340     0.9840    -0.1650 hc         1 UNL       0.090200
     21 H1           6.9660     0.3580    -2.6990 hc         1 UNL       0.091200
     22 H2           7.0980    -2.3030    -2.2790 hc         1 UNL       0.061200
     23 H3           5.4080    -1.7980    -2.5000 hc         1 UNL       0.061200
     24 H4           5.7680    -2.8400    -0.0630 hc         1 UNL       0.091200
     25 H5           8.1540    -2.3850     0.2900 h1         1 UNL       0.114200
     26 H6           8.9460    -0.5940    -1.3910 h1         1 UNL       0.114200
     27 H7           4.3320    -1.1920    -0.9550 hc         1 UNL       0.090200
@<TRIPOS>BOND
     1     1     2 1   
     2     2     3 2   
     3     3     4 1   
     4     3     5 1   
     5     5     6 1   
     6     5     7 1   
     7     7     8 1   
     8     8     9 1   
     9     9    10 1   
    10    10    11 1   
    11    11    12 1   
    12    12    13 1   
    13     8    13 1   
    14    11    13 1   
    15    10    14 1   
    16     7    14 1   
    17    14    15 1   
    18     2    15 1   
    19    15    16 1   
    20    15    17 1   
    21     5    17 1   
    22    17    18 1   
    23    17    19 1   
    24     7    20 1   
    25     8    21 1   
    26     9    22 1   
    27     9    23 1   
    28    10    24 1   
    29    11    25 1   
    30    13    26 1   
    31    14    27 1   
@<TRIPOS>SUBSTRUCTURE
     1 UNL         1 TEMP              0 ****  ****    0 ROOT
