@<TRIPOS>MOLECULE
*****
 28 28 0 0 0
SMALL
GASTEIGER

@<TRIPOS>ATOM
      1 C           3.0779    2.2341    1.0247 C.3     1  UNL1       -0.0612
      2 C           2.5574    1.0743    1.8776 C.3     1  UNL1       -0.0311
      3 C           1.0282    1.0944    1.9038 C.3     1  UNL1       -0.0612
      4 C           3.0521   -0.2802    1.3507 C.3     1  UNL1        0.0154
      5 N           4.4927   -0.3940    1.3895 N.am    1  UNL1       -0.2986
      6 C           5.1822   -0.8958    2.4612 C.2     1  UNL1        0.3098
      7 O           4.6312   -1.3430    3.4643 O.2     1  UNL1       -0.2522
      8 N           6.5571   -0.8854    2.3126 N.am    1  UNL1       -0.2084
      9 C           7.4292   -1.4845    3.2980 C.3     1  UNL1        0.0409
     10 C           8.7790   -1.5137    2.6019 C.3     1  UNL1        0.0294
     11 N           8.6720   -0.4598    1.6316 N.am    1  UNL1       -0.2974
     12 C           7.3324   -0.2033    1.3569 C.2     1  UNL1        0.3098
     13 O           6.9372    0.4722    0.4202 O.2     1  UNL1       -0.2522
     14 H           2.6998    3.1912    1.3992 H       1  UNL1        0.0233
     15 H           2.7637    2.1308   -0.0196 H       1  UNL1        0.0233
     16 H           4.1714    2.2834    1.0467 H       1  UNL1        0.0233
     17 H           2.9227    1.2152    2.9027 H       1  UNL1        0.0311
     18 H           0.6116    0.9348    0.9038 H       1  UNL1        0.0233
     19 H           0.6564    2.0556    2.2747 H       1  UNL1        0.0233
     20 H           0.6400    0.3097    2.5615 H       1  UNL1        0.0233
     21 H           2.7490   -0.4254    0.3081 H       1  UNL1        0.0465
     22 H           2.6184   -1.0953    1.9413 H       1  UNL1        0.0465
     23 H           5.0389    0.0894    0.6803 H       1  UNL1        0.1503
     24 H           7.0770   -2.4739    3.6033 H       1  UNL1        0.0486
     25 H           7.4473   -0.8272    4.1754 H       1  UNL1        0.0486
     26 H           8.9188   -2.4504    2.0516 H       1  UNL1        0.0478
     27 H           9.6256   -1.3474    3.2702 H       1  UNL1        0.0478
     28 H           9.3736   -0.2092    0.9464 H       1  UNL1        0.1503
@<TRIPOS>BOND
     1     1     2    1
     2     2     3    1
     3     2     4    1
     4     4     5    1
     5     5     6   am
     6     6     7    2
     7     6     8   am
     8     8     9    1
     9     9    10    1
    10    10    11    1
    11    11    12   am
    12     8    12   am
    13    12    13    2
    14     1    14    1
    15     1    15    1
    16     1    16    1
    17     2    17    1
    18     3    18    1
    19     3    19    1
    20     3    20    1
    21     4    21    1
    22     4    22    1
    23     5    23    1
    24     9    24    1
    25     9    25    1
    26    10    26    1
    27    10    27    1
    28    11    28    1
