@<TRIPOS>MOLECULE
*****
 16 17 0 0 0
SMALL
GASTEIGER

@<TRIPOS>ATOM
      1 CL          0.9582    0.0537    0.0503 Cl      1  UNL1       -0.0804
      2 C           2.6989    0.0352    0.0531 C.ar    1  UNL1        0.0811
      3 C           3.3925   -1.1788    0.0543 C.ar    1  UNL1        0.0811
      4 CL          2.5247   -2.6880    0.0477 Cl      1  UNL1       -0.0804
      5 C           4.7962   -1.1689    0.0595 C.ar    1  UNL1        0.0881
      6 CL          5.6846   -2.6729    0.0675 Cl      1  UNL1       -0.0797
      7 C           5.5263    0.0302    0.0599 C.ar    1  UNL1        0.1103
      8 N           6.8844    0.0211    0.0624 N.ar    1  UNL1       -0.2504
      9 C           7.5326    1.2026    0.0624 C.ar    1  UNL1        0.0464
     10 C           6.8531    2.3924    0.0608 C.ar    1  UNL1        0.0464
     11 N           5.5059    2.4338    0.0586 N.ar    1  UNL1       -0.2504
     12 C           4.8242    1.2594    0.0577 C.ar    1  UNL1        0.1103
     13 C           3.4204    1.2394    0.0552 C.ar    1  UNL1        0.0881
     14 CL          2.5756    2.7684    0.0542 Cl      1  UNL1       -0.0797
     15 H           8.6156    1.1577    0.0635 H       1  UNL1        0.0845
     16 H           7.3643    3.3480    0.0613 H       1  UNL1        0.0845
@<TRIPOS>BOND
     1     1     2    1
     2     2     3   ar
     3     3     4    1
     4     3     5   ar
     5     5     6    1
     6     5     7   ar
     7     7     8   ar
     8     8     9   ar
     9     9    10   ar
    10    10    11   ar
    11    11    12   ar
    12     7    12   ar
    13    12    13   ar
    14     2    13   ar
    15    13    14    1
    16     9    15    1
    17    10    16    1
