@<TRIPOS>MOLECULE
*****
 33 34 0 0 0
SMALL
GASTEIGER

@<TRIPOS>ATOM
      1 C           1.1498   -0.1170   -0.0453 C.3     1  UNL1       -0.0205
      2 C           2.6199    0.0687   -0.0205 C.ar    1  UNL1        0.0641
      3 C           3.3291    1.2566    0.2296 C.ar    1  UNL1        0.0233
      4 C           4.6644    0.9091    0.2238 C.ar    1  UNL1        0.2287
      5 O           5.7839    1.6151    0.3293 O.3     1  UNL1       -0.3926
      6 C           5.7817    2.8288    0.9339 C.2     1  UNL1        0.4089
      7 O           4.8133    3.3229    1.5021 O.2     1  UNL1       -0.2258
      8 N           7.0151    3.4669    0.8787 N.am    1  UNL1       -0.2732
      9 C           8.1880    2.9202    0.2175 C.3     1  UNL1        0.0060
     10 C           7.1743    4.7526    1.5311 C.3     1  UNL1        0.0060
     11 N           4.6907   -0.4642   -0.0083 N.ar    1  UNL1       -0.1998
     12 C           5.8090   -1.3455    0.0194 C.ar    1  UNL1        0.0691
     13 C           6.9512   -1.0398    0.7734 C.ar    1  UNL1       -0.0361
     14 C           8.0306   -1.9254    0.8015 C.ar    1  UNL1       -0.0598
     15 C           7.9839   -3.1088    0.0671 C.ar    1  UNL1       -0.0616
     16 C           6.8488   -3.4213   -0.6805 C.ar    1  UNL1       -0.0598
     17 C           5.7545   -2.5528   -0.6916 C.ar    1  UNL1       -0.0361
     18 N           3.4435   -0.9557   -0.2573 N.ar    1  UNL1       -0.1685
     19 H           0.6325    0.8479   -0.0451 H       1  UNL1        0.0293
     20 H           0.8247   -0.6716    0.8425 H       1  UNL1        0.0293
     21 H           0.8358   -0.6705   -0.9354 H       1  UNL1        0.0293
     22 H           2.9151    2.2424    0.3909 H       1  UNL1        0.0689
     23 H           7.9917    1.9650   -0.2737 H       1  UNL1        0.0429
     24 H           8.9747    2.7786    0.9647 H       1  UNL1        0.0429
     25 H           8.5312    3.6372   -0.5348 H       1  UNL1        0.0429
     26 H           6.2459    5.1039    1.9914 H       1  UNL1        0.0429
     27 H           7.4972    5.4885    0.7892 H       1  UNL1        0.0429
     28 H           7.9365    4.6588    2.3100 H       1  UNL1        0.0429
     29 H           7.0063   -0.1508    1.3937 H       1  UNL1        0.0639
     30 H           8.9028   -1.6969    1.4085 H       1  UNL1        0.0618
     31 H           8.8271   -3.7936    0.0867 H       1  UNL1        0.0618
     32 H           6.8137   -4.3441   -1.2535 H       1  UNL1        0.0618
     33 H           4.8770   -2.8141   -1.2807 H       1  UNL1        0.0639
@<TRIPOS>BOND
     1     1     2    1
     2     2     3   ar
     3     3     4   ar
     4     4     5    1
     5     5     6    1
     6     6     7    2
     7     6     8   am
     8     8     9    1
     9     8    10    1
    10     4    11   ar
    11    11    12    1
    12    12    13   ar
    13    13    14   ar
    14    14    15   ar
    15    15    16   ar
    16    16    17   ar
    17    12    17   ar
    18    11    18   ar
    19     2    18   ar
    20     1    19    1
    21     1    20    1
    22     1    21    1
    23     3    22    1
    24     9    23    1
    25     9    24    1
    26     9    25    1
    27    10    26    1
    28    10    27    1
    29    10    28    1
    30    13    29    1
    31    14    30    1
    32    15    31    1
    33    16    32    1
    34    17    33    1
