@<TRIPOS>MOLECULE
*****
 37 38 0 0 0
SMALL
GASTEIGER

@<TRIPOS>ATOM
      1 C           2.5344    0.2151    0.0068 C.3     1  UNL1       -0.0607
      2 C           1.0627    0.0458    0.3966 C.3     1  UNL1       -0.0254
      3 C           0.2769    1.2723   -0.1029 C.3     1  UNL1       -0.0488
      4 C          -1.2039    1.1888    0.2542 C.3     1  UNL1       -0.0527
      5 C          -1.8314   -0.1020   -0.2568 C.3     1  UNL1       -0.0514
      6 C          -1.0664   -1.3277    0.2333 C.3     1  UNL1       -0.0342
      7 C           0.4187   -1.2559   -0.1512 C.3     1  UNL1        0.0271
      8 N           1.0985   -2.4688    0.3029 N.am    1  UNL1       -0.2960
      9 C           2.1325   -2.9995   -0.4394 C.2     1  UNL1        0.3041
     10 O           2.4622   -2.5297   -1.5234 O.2     1  UNL1       -0.2525
     11 N           2.7049   -4.0963    0.1677 N.am    1  UNL1       -0.2695
     12 C           3.8802   -4.7406   -0.2839 C.ar    1  UNL1        0.0348
     13 C           4.8129   -4.1089   -1.1132 C.ar    1  UNL1       -0.0404
     14 C           5.9441   -4.7890   -1.5682 C.ar    1  UNL1       -0.0600
     15 C           6.1629   -6.1079   -1.1857 C.ar    1  UNL1       -0.0616
     16 C           5.2596   -6.7385   -0.3313 C.ar    1  UNL1       -0.0600
     17 C           4.1265   -6.0550    0.1274 C.ar    1  UNL1       -0.0404
     18 H           2.9114    1.1925    0.3287 H       1  UNL1        0.0233
     19 H           2.6705    0.1489   -1.0777 H       1  UNL1        0.0233
     20 H           3.1624   -0.5429    0.4843 H       1  UNL1        0.0233
     21 H           1.0149    0.0273    1.4941 H       1  UNL1        0.0316
     22 H           0.3796    1.3585   -1.1923 H       1  UNL1        0.0268
     23 H           0.6964    2.1896    0.3272 H       1  UNL1        0.0268
     24 H          -1.7330    2.0492   -0.1712 H       1  UNL1        0.0265
     25 H          -1.3202    1.2478    1.3431 H       1  UNL1        0.0265
     26 H          -1.8420   -0.0936   -1.3539 H       1  UNL1        0.0266
     27 H          -2.8747   -0.1610    0.0719 H       1  UNL1        0.0266
     28 H          -1.5179   -2.2308   -0.1941 H       1  UNL1        0.0283
     29 H          -1.1679   -1.4138    1.3224 H       1  UNL1        0.0283
     30 H           0.4748   -1.2309   -1.2474 H       1  UNL1        0.0501
     31 H           1.0738   -2.6866    1.2879 H       1  UNL1        0.1505
     32 H           2.1066   -4.6143    0.7914 H       1  UNL1        0.1564
     33 H           4.6860   -3.0748   -1.4204 H       1  UNL1        0.0636
     34 H           6.6450   -4.2828   -2.2266 H       1  UNL1        0.0618
     35 H           7.0356   -6.6404   -1.5538 H       1  UNL1        0.0618
     36 H           5.4343   -7.7682   -0.0303 H       1  UNL1        0.0618
     37 H           3.4348   -6.5757    0.7830 H       1  UNL1        0.0636
@<TRIPOS>BOND
     1     1     2    1
     2     2     3    1
     3     3     4    1
     4     4     5    1
     5     5     6    1
     6     6     7    1
     7     2     7    1
     8     7     8    1
     9     8     9   am
    10     9    10    2
    11     9    11   am
    12    11    12    1
    13    12    13   ar
    14    13    14   ar
    15    14    15   ar
    16    15    16   ar
    17    16    17   ar
    18    12    17   ar
    19     1    18    1
    20     1    19    1
    21     1    20    1
    22     2    21    1
    23     3    22    1
    24     3    23    1
    25     4    24    1
    26     4    25    1
    27     5    26    1
    28     5    27    1
    29     6    28    1
    30     6    29    1
    31     7    30    1
    32     8    31    1
    33    11    32    1
    34    13    33    1
    35    14    34    1
    36    15    35    1
    37    16    36    1
    38    17    37    1
