@<TRIPOS>MOLECULE
*****
   26    29     1     0     0
SMALL
bcc


@<TRIPOS>ATOM
      1 Cl           1.6810     0.8650     0.3100 cl         1 UNL      -0.012400
      2 C            3.1880     0.0780     0.2310 c2         1 UNL      -0.025800
      3 C1           3.4460    -1.1520     0.7160 c2         1 UNL      -0.025800
      4 Cl1          2.3770    -2.1820     1.5500 cl         1 UNL      -0.012400
      5 C2           4.7300    -1.6020     0.1000 c3         1 UNL       0.095600
      6 Cl2          5.0750    -3.3250     0.1310 cl         1 UNL      -0.085400
      7 C3           5.9060    -0.7470     0.6560 c3         1 UNL      -0.073700
      8 C4           6.1140    -0.2980     2.1240 c3         1 UNL      -0.033500
      9 C5           5.0520     0.6230     2.7130 c2         1 UNL      -0.175200
     10 C6           5.0960     1.7940     2.0500 c2         1 UNL      -0.175200
     11 C7           6.1420     1.6550     0.9930 c3         1 UNL      -0.033500
     12 C8           7.1440     0.8150     1.8290 c3         1 UNL      -0.083400
     13 C9           5.7200     0.6340    -0.0730 c3         1 UNL      -0.073700
     14 C10          4.3120     0.4520    -0.7360 c3         1 UNL       0.095600
     15 Cl3          3.9510     1.7390    -1.8780 cl         1 UNL      -0.085400
     16 C11          4.5150    -0.9890    -1.3420 c3         1 UNL       0.129800
     17 Cl4          5.9160    -1.1770    -2.4700 cl         1 UNL      -0.096400
     18 Cl5          3.0990    -1.6510    -2.2640 cl         1 UNL      -0.096400
     19 H            6.8460    -1.1970     0.3050 hc         1 UNL       0.085700
     20 H1           6.4600    -1.0720     2.8140 hc         1 UNL       0.084700
     21 H2           4.4710     0.4480     3.6000 ha         1 UNL       0.153000
     22 H3           4.5750     2.7120     2.2980 ha         1 UNL       0.153000
     23 H4           6.5630     2.5940     0.6230 hc         1 UNL       0.084700
     24 H5           7.5180     1.3200     2.7300 hc         1 UNL       0.059200
     25 H6           8.0070     0.4650     1.2500 hc         1 UNL       0.059200
     26 H7           6.4860     0.7360    -0.8510 hc         1 UNL       0.085700
@<TRIPOS>BOND
     1     1     2 1   
     2     2     3 2   
     3     3     4 1   
     4     3     5 1   
     5     5     6 1   
     6     5     7 1   
     7     7     8 1   
     8     8     9 1   
     9     9    10 2   
    10    10    11 1   
    11    11    12 1   
    12     8    12 1   
    13    11    13 1   
    14     7    13 1   
    15    13    14 1   
    16     2    14 1   
    17    14    15 1   
    18    14    16 1   
    19     5    16 1   
    20    16    17 1   
    21    16    18 1   
    22     7    19 1   
    23     8    20 1   
    24     9    21 1   
    25    10    22 1   
    26    11    23 1   
    27    12    24 1   
    28    12    25 1   
    29    13    26 1   
@<TRIPOS>SUBSTRUCTURE
     1 UNL         1 TEMP              0 ****  ****    0 ROOT
