@<TRIPOS>MOLECULE
*****
 39 41 0 0 0
SMALL
GASTEIGER

@<TRIPOS>ATOM
      1 C           1.3395    0.1383    0.9954 C.3     1  UNL1       -0.0652
      2 C           2.7698    0.0013    0.4935 C.3     1  UNL1       -0.0535
      3 C           3.1873    1.2087   -0.3502 C.3     1  UNL1       -0.0246
      4 C           4.6278    1.0823   -0.8643 C.3     1  UNL1        0.0857
      5 C           5.0787    2.2972   -1.6347 C.3     1  UNL1        0.0776
      6 O           4.7458    2.0187   -2.9903 O.3     1  UNL1       -0.3407
      7 C           4.7305    0.5750   -3.1279 C.3     1  UNL1        0.2185
      8 C           3.3905    0.2273   -3.8122 C.3     1  UNL1        0.1018
      9 N           3.2788    0.6872   -5.1779 N.ar    1  UNL1       -0.2465
     10 C           3.1403    1.9725   -5.6135 C.ar    1  UNL1        0.1145
     11 N           2.9285    1.9727   -6.9100 N.ar    1  UNL1       -0.2228
     12 C           2.9249    0.6427   -7.2203 C.ar    1  UNL1        0.1379
     13 N           3.1368   -0.1833   -6.1929 N.ar    1  UNL1       -0.1582
     14 C           5.9718    0.0748   -3.8832 C.ar    1  UNL1        0.0313
     15 C           6.9224    1.0032   -4.3681 C.ar    1  UNL1       -0.0507
     16 C           8.0441    0.5976   -5.0997 C.ar    1  UNL1       -0.0429
     17 C           8.2400   -0.7495   -5.3739 C.ar    1  UNL1        0.0424
     18 CL          9.6059   -1.2489   -6.2920 Cl      1  UNL1       -0.0835
     19 C           7.3373   -1.6934   -4.9005 C.ar    1  UNL1       -0.0246
     20 C           6.2225   -1.2897   -4.1500 C.ar    1  UNL1        0.0507
     21 CL          5.2137   -2.5664   -3.5634 Cl      1  UNL1       -0.0830
     22 O           4.7460    0.0080   -1.7990 O.3     1  UNL1       -0.3377
     23 H           1.1443   -0.5895    1.7894 H       1  UNL1        0.0230
     24 H           0.6255   -0.0451    0.1863 H       1  UNL1        0.0230
     25 H           1.1497    1.1383    1.3992 H       1  UNL1        0.0230
     26 H           2.8601   -0.9245   -0.0859 H       1  UNL1        0.0263
     27 H           3.4424   -0.0872    1.3547 H       1  UNL1        0.0263
     28 H           3.1041    2.1148    0.2634 H       1  UNL1        0.0291
     29 H           2.4844    1.3193   -1.1818 H       1  UNL1        0.0291
     30 H           5.2948    0.8977   -0.0153 H       1  UNL1        0.0620
     31 H           6.1638    2.4290   -1.5713 H       1  UNL1        0.0587
     32 H           4.6000    3.2288   -1.3177 H       1  UNL1        0.0587
     33 H           2.5607    0.7008   -3.2754 H       1  UNL1        0.0567
     34 H           3.1723   -0.8434   -3.7930 H       1  UNL1        0.0567
     35 H           3.2010    2.8372   -4.9706 H       1  UNL1        0.1044
     36 H           2.7506    0.2671   -8.2205 H       1  UNL1        0.1065
     37 H           6.7995    2.0708   -4.1885 H       1  UNL1        0.0623
     38 H           8.7535    1.3400   -5.4575 H       1  UNL1        0.0632
     39 H           7.4987   -2.7478   -5.1163 H       1  UNL1        0.0647
@<TRIPOS>BOND
     1     1     2    1
     2     2     3    1
     3     3     4    1
     4     4     5    1
     5     5     6    1
     6     6     7    1
     7     7     8    1
     8     8     9    1
     9     9    10   ar
    10    10    11   ar
    11    11    12   ar
    12    12    13   ar
    13     9    13   ar
    14     7    14    1
    15    14    15   ar
    16    15    16   ar
    17    16    17   ar
    18    17    18    1
    19    17    19   ar
    20    19    20   ar
    21    14    20   ar
    22    20    21    1
    23     7    22    1
    24     4    22    1
    25     1    23    1
    26     1    24    1
    27     1    25    1
    28     2    26    1
    29     2    27    1
    30     3    28    1
    31     3    29    1
    32     4    30    1
    33     5    31    1
    34     5    32    1
    35     8    33    1
    36     8    34    1
    37    10    35    1
    38    12    36    1
    39    15    37    1
    40    16    38    1
    41    19    39    1
