@<TRIPOS>MOLECULE
*****
   29    30     1     0     0
SMALL
bcc


@<TRIPOS>ATOM
      1 C            5.1060     1.5620    -1.5080 c3         1 UNL      -0.061900
      2 C1           4.2170     0.8110    -0.5490 c2         1 UNL       0.162900
      3 C2           3.0820     1.2650     0.0280 ce         1 UNL      -0.228600
      4 C3           2.5580     2.6860    -0.1530 c          1 UNL       0.712300
      5 O            3.2740     3.5870    -0.5710 o          1 UNL      -0.595100
      6 N            1.2440     2.8680     0.2540 ns         1 UNL      -0.464100
      7 C4           0.4880     4.0570     0.1930 ca         1 UNL       0.073600
      8 C5           0.8500     5.1680    -0.5720 ca         1 UNL      -0.171000
      9 C6           0.0690     6.3290    -0.5590 ca         1 UNL      -0.104500
     10 C7          -1.0820     6.3860     0.2220 ca         1 UNL      -0.159000
     11 C8          -1.4660     5.2770     0.9690 ca         1 UNL      -0.104500
     12 C9          -0.6930     4.1130     0.9440 ca         1 UNL      -0.171000
     13 S            2.0610     0.1670     0.9320 ss         1 UNL      -0.183700
     14 C10          3.3330    -0.8530     1.6970 c3         1 UNL      -0.076300
     15 C11          4.5110    -1.1990     0.7990 c3         1 UNL       0.121400
     16 O1           4.6790    -0.4860    -0.4220 os         1 UNL      -0.319900
     17 H            4.8230     2.5880    -1.7260 hc         1 UNL       0.073700
     18 H1           5.1170     1.0370    -2.4700 hc         1 UNL       0.073700
     19 H2           6.1330     1.5830    -1.1270 hc         1 UNL       0.073700
     20 H3           0.8230     2.0760     0.7260 hn         1 UNL       0.325500
     21 H4           1.7310     5.1570    -1.2060 ha         1 UNL       0.150500
     22 H5           0.3680     7.1850    -1.1570 ha         1 UNL       0.131500
     23 H6          -1.6780     7.2970     0.2450 ha         1 UNL       0.132000
     24 H7          -2.3650     5.3200     1.5790 ha         1 UNL       0.131500
     25 H8          -1.0110     3.2630     1.5430 ha         1 UNL       0.150500
     26 H9           2.8660    -1.7800     2.0500 h1         1 UNL       0.092200
     27 H10          3.6940    -0.3430     2.5980 h1         1 UNL       0.092200
     28 H11          4.4510    -2.2580     0.5240 h1         1 UNL       0.072200
     29 H12          5.4410    -1.1030     1.3750 h1         1 UNL       0.072200
@<TRIPOS>BOND
     1     1     2 1   
     2     2     3 2   
     3     3     4 1   
     4     4     5 2   
     5     4     6 1   
     6     6     7 1   
     7     7     8 ar  
     8     8     9 ar  
     9     9    10 ar  
    10    10    11 ar  
    11    11    12 ar  
    12     7    12 ar  
    13     3    13 1   
    14    13    14 1   
    15    14    15 1   
    16    15    16 1   
    17     2    16 1   
    18     1    17 1   
    19     1    18 1   
    20     1    19 1   
    21     6    20 1   
    22     8    21 1   
    23     9    22 1   
    24    10    23 1   
    25    11    24 1   
    26    12    25 1   
    27    14    26 1   
    28    14    27 1   
    29    15    28 1   
    30    15    29 1   
@<TRIPOS>SUBSTRUCTURE
     1 UNL         1 TEMP              0 ****  ****    0 ROOT
