@<TRIPOS>MOLECULE
*****
   20    21     1     0     0
SMALL
bcc


@<TRIPOS>ATOM
      1 Cl           1.0910     0.1480     0.2750 cl         1 UNL      -0.008900
      2 C            2.7920     0.1190     0.2370 ce         1 UNL       0.023400
      3 C1           3.5730    -0.9700     0.2780 c2         1 UNL      -0.046800
      4 Cl1          3.0400    -2.5820     0.4210 cl         1 UNL       0.000100
      5 C2           5.0540    -0.5850     0.1640 c3         1 UNL       0.152800
      6 Cl2          5.8390    -0.9990     1.7450 cl         1 UNL      -0.087400
      7 C3           5.7810    -1.2410    -1.1050 c3         1 UNL       0.152800
      8 Cl3          7.3720    -0.4680    -1.5070 cl         1 UNL      -0.087400
      9 C4           4.9260    -1.2080    -2.3770 c2         1 UNL      -0.046800
     10 Cl4          4.3460     0.2380    -3.0720 cl         1 UNL       0.000100
     11 C5           4.7010    -2.4500    -2.8340 ce         1 UNL       0.023400
     12 Cl5          3.7560    -2.8780    -4.1830 cl         1 UNL      -0.008900
     13 C6           5.4120    -3.3980    -2.0140 ce         1 UNL       0.023400
     14 Cl6          5.4860    -5.0680    -2.3360 cl         1 UNL      -0.008900
     15 C7           6.0500    -2.7490    -1.0290 c2         1 UNL      -0.046800
     16 Cl7          7.1630    -3.4590     0.0530 cl         1 UNL       0.000100
     17 C8           4.9070     0.9440     0.1510 c2         1 UNL      -0.046800
     18 Cl8          6.2280     2.0200     0.2730 cl         1 UNL       0.000100
     19 C9           3.6160     1.3020     0.1790 ce         1 UNL       0.023400
     20 Cl9          3.0100     2.8900     0.2330 cl         1 UNL      -0.008900
@<TRIPOS>BOND
     1     1     2 1   
     2     2     3 2   
     3     3     4 1   
     4     3     5 1   
     5     5     6 1   
     6     5     7 1   
     7     7     8 1   
     8     7     9 1   
     9     9    10 1   
    10     9    11 2   
    11    11    12 1   
    12    11    13 1   
    13    13    14 1   
    14    13    15 2   
    15     7    15 1   
    16    15    16 1   
    17     5    17 1   
    18    17    18 1   
    19    17    19 2   
    20     2    19 1   
    21    19    20 1   
@<TRIPOS>SUBSTRUCTURE
     1 UNL         1 TEMP              0 ****  ****    0 ROOT
