@<TRIPOS>MOLECULE
*****
 37 39 0 0 0
SMALL
GASTEIGER

@<TRIPOS>ATOM
      1 C           3.5305   -0.3518   -1.4667 C.3     1  UNL1       -0.0636
      2 C           3.5433   -0.2504    0.0574 C.3     1  UNL1       -0.0296
      3 C           3.0515   -1.5065    0.8465 C.3     1  UNL1        0.1443
      4 C           3.0741   -1.2982    2.3869 C.2     1  UNL1       -0.0468
      5 C           3.3430   -0.1221    3.0011 C.2     1  UNL1       -0.0828
      6 C           3.3301    0.0492    4.5017 C.3     1  UNL1       -0.0316
      7 C           3.0353   -1.2503    5.2798 C.3     1  UNL1       -0.0370
      8 C           1.5436   -1.6177    5.2394 C.3     1  UNL1       -0.0494
      9 C           1.3418   -2.3371    3.9013 C.3     1  UNL1       -0.0462
     10 C           2.7528   -2.4921    3.2943 C.3     1  UNL1       -0.0182
     11 C           3.6504   -2.4416    4.5448 C.3     1  UNL1       -0.0433
     12 C           3.9915   -2.6588    0.4688 C.2     1  UNL1        0.2395
     13 O           5.1223   -2.8037    0.9330 O.2     1  UNL1       -0.2739
     14 N           3.5500   -3.5193   -0.5005 N.am    1  UNL1       -0.2387
     15 C           2.2793   -3.6269   -0.9683 C.2     1  UNL1        0.3122
     16 O           1.9760   -4.4414   -1.8332 O.2     1  UNL1       -0.2520
     17 N           1.3571   -2.7926   -0.4227 N.am    1  UNL1       -0.2387
     18 C           1.6003   -1.7500    0.4288 C.2     1  UNL1        0.2395
     19 O           0.6669   -1.0184    0.7498 O.2     1  UNL1       -0.2739
     20 H           3.8270    0.6107   -1.8974 H       1  UNL1        0.0230
     21 H           2.5345   -0.5863   -1.8521 H       1  UNL1        0.0230
     22 H           4.2370   -1.1030   -1.8302 H       1  UNL1        0.0230
     23 H           2.9182    0.6137    0.3174 H       1  UNL1        0.0280
     24 H           4.5706   -0.0061    0.3604 H       1  UNL1        0.0280
     25 H           3.5829    0.7773    2.4432 H       1  UNL1        0.0572
     26 H           2.5969    0.8213    4.7632 H       1  UNL1        0.0310
     27 H           4.3140    0.4288    4.8025 H       1  UNL1        0.0310
     28 H           3.3901   -1.1554    6.3106 H       1  UNL1        0.0304
     29 H           0.8885   -0.7483    5.3527 H       1  UNL1        0.0268
     30 H           1.3145   -2.3083    6.0629 H       1  UNL1        0.0268
     31 H           0.6589   -1.7724    3.2589 H       1  UNL1        0.0271
     32 H           0.8884   -3.3184    4.0765 H       1  UNL1        0.0271
     33 H           2.8675   -3.4446    2.7694 H       1  UNL1        0.0346
     34 H           4.7126   -2.3015    4.3171 H       1  UNL1        0.0274
     35 H           3.5457   -3.3577    5.1393 H       1  UNL1        0.0274
     36 H           4.2055   -4.2162   -0.8271 H       1  UNL1        0.1591
     37 H           0.4067   -2.8893   -0.7536 H       1  UNL1        0.1591
@<TRIPOS>BOND
     1     1     2    1
     2     2     3    1
     3     3     4    1
     4     4     5    2
     5     5     6    1
     6     6     7    1
     7     7     8    1
     8     8     9    1
     9     9    10    1
    10     4    10    1
    11    10    11    1
    12     7    11    1
    13     3    12    1
    14    12    13    2
    15    12    14   am
    16    14    15   am
    17    15    16    2
    18    15    17   am
    19    17    18   am
    20     3    18    1
    21    18    19    2
    22     1    20    1
    23     1    21    1
    24     1    22    1
    25     2    23    1
    26     2    24    1
    27     5    25    1
    28     6    26    1
    29     6    27    1
    30     7    28    1
    31     8    29    1
    32     8    30    1
    33     9    31    1
    34     9    32    1
    35    10    33    1
    36    11    34    1
    37    11    35    1
    38    14    36    1
    39    17    37    1
